63
 energy: -142.123633912807 gnorm: 0.000145237196 xtb: 6.4.1 (a3dbbd7)
C         0.18966668713122   -0.05949744582728   -3.51626189036574
C         0.26166334066550    1.35443794780325   -3.24959042934079
C        -1.05192320996458    1.80223036488333   -2.86120330399563
C        -1.16351905913259   -0.48434510197929   -3.29892471636604
C        -1.93426785058643    0.66410225115879   -2.89060136164061
C        -1.40521125889449   -1.72523934998390   -2.72483847123575
C        -0.30826317857108   -2.58238386469237   -2.36799603454551
C         1.24176180648444   -0.89634316679710   -3.14695694579069
C         0.99120470636315   -2.18486006621543   -2.59593669073882
C         2.40623347645056   -0.34243085408413   -2.50169113684509
C         1.38642146739642    1.88875617962021   -2.63791809016785
C         2.47761311271592    1.02556112264858   -2.26256298515202
C         1.24246837296839    2.89096727810668   -1.61203755681178
C        -1.19205363430669    2.76698267699778   -1.87092898622715
C        -0.02418004929343    3.32228742819615   -1.23493248177482
C        -2.21864235249620    2.62657187744069   -0.87019285129312
C        -2.92011852288960    0.52622744878562   -1.92263854350542
C        -3.06580504840472    1.52499832096497   -0.89518804813755
C        -2.43545728439213   -1.86846431377612   -1.72269608792585
C        -3.17806334362417   -0.76271664409532   -1.33119540327976
C        -0.67276776829901   -3.26444654027616   -1.13621746069869
C        -1.98046082909940   -2.81994628891473   -0.74502895856806
C         0.30335277180489   -3.46449872654874   -0.17304561055747
C         2.14756593294320   -2.58972810999027   -1.70055607337231
C         2.89244723502707   -1.28149734101696   -1.54140748139780
C         1.64989788245302   -3.03822937332330   -0.37688421227687
C         3.39651941339576   -0.83955278862178   -0.34845796783568
C         3.00554241546898    1.48941520724534   -1.01636458667850
C         2.24756073543976    2.64618698466681   -0.61004580397521
C         3.43152181904072    0.56083542529833   -0.07268363145858
C         1.95314017130681    2.84218217103366    0.73128675070736
C        -0.32987407318657    3.52579556832467    0.15775949892305
C        -1.68689581480048    3.09639549427038    0.38343695527229
C         0.64200733791145    3.29068851138585    1.12358004822311
C        -2.02372687416121    2.44915126539565    1.56607945126694
C        -3.41486414195557    0.85557873950291    0.33137310000441
C        -3.48410205197523   -0.55898334285387    0.06314516222189
C        -2.90688641157357    1.31155596195863    1.54045774206517
C        -2.27717645604658   -2.62241601362236    0.60687190853133
C        -3.03541419212756   -1.46904992380567    1.01068559679249
C        -0.00299565209759   -3.26052647870880    1.22283696920848
C        -1.27465267702815   -2.86391147852554    1.60543364893835
C         2.14461881118169   -2.56420633314965    0.84596389350252
C         3.27858831282786   -1.60633329061783    0.95492537049229
C         1.16400886684722   -2.71479097386138    1.83631904567467
C         3.12590067173597    0.76424551785635    1.31956516213970
C         2.40664273546086    1.88804702036855    1.71196420983165
C         2.89685548164237   -0.50699955394823    1.92771908829765
C         0.29179065534910    2.61741393887608    2.34898850713801
C        -1.01474337136673    2.20412021599019    2.56547530533239
C         1.38693946315933    1.75153803379767    2.70615842440285
C        -2.44202168058897    0.36675384818800    2.52583875268718
C        -2.50071436845187   -0.99594405719149    2.26624651618398
C        -1.40755923599785   -1.85064061956322    2.64025675674943
C        -1.27448846889144    0.91518084448111    3.15423643366009
C         1.10052801124894   -1.89276503803176    3.06969083236460
C         1.92213967097399   -0.63557916389073    2.87953330719536
C         1.14182887566690    0.49922731940245    3.25868876970868
C        -0.29490735252174   -1.32876676645375    3.26341720289203
C        -0.21580088013472    0.07390068790465    3.49342393207931
Cl        4.82114562423788   -2.42542337340061    1.41315835878341
Cl        1.63422523766243   -2.83952745151447    4.52808942340569
Cl        3.17515408123652   -3.86508995186097   -2.49197408732255
