63
 energy: -142.116799361980 gnorm: 0.000091488688 xtb: 6.4.1 (a3dbbd7)
C         0.19242543178616   -0.05340517856958   -3.50603370668818
C         0.26400847923592    1.35840224755248   -3.24367123130577
C        -1.04960647600926    1.80797509940682   -2.85776276699049
C        -1.16250539974112   -0.47795367403836   -3.28754895884394
C        -1.93510478638218    0.66879051666769   -2.88656784908188
C        -1.40479489173035   -1.71348257436697   -2.70607692919529
C        -0.30462795221483   -2.56665791151243   -2.31645101907402
C         1.24301724125751   -0.89278468741329   -3.12827728808051
C         0.99991409978439   -2.17607912269132   -2.57250493268620
C         2.41310481578092   -0.33563441426393   -2.49500591802510
C         1.39013861145383    1.89573779233943   -2.63233749949854
C         2.48241997273243    1.03247390370689   -2.25675877819058
C         1.24434258438239    2.89595233393330   -1.60739562307557
C        -1.18972098673531    2.76885198573780   -1.86597400384105
C        -0.02169605307930    3.32528096186767   -1.22915468518504
C        -2.21663635289165    2.62669882779937   -0.86428194860334
C        -2.92429186247806    0.53342786767382   -1.92141348638811
C        -3.06684355634111    1.52987078940180   -0.89077519849000
C        -2.43370987549745   -1.85400580188828   -1.71640706490474
C        -3.18214007009619   -0.75493725612337   -1.32795920553744
C        -0.68087272742761   -3.25434113422610   -1.12590885016549
C        -1.96047530187291   -2.80317886360709   -0.73067424219902
C         0.33183234314739   -3.72376676832800   -0.15483078794620
C         2.16254413640041   -2.58939652215499   -1.69295716914514
C         2.90435211474254   -1.27490746087804   -1.53749907299657
C         1.67033179795602   -3.03979642013979   -0.36291533248414
C         3.40958764054864   -0.82582664215020   -0.34898816966007
C         3.01227663081206    1.50011800023626   -1.01237235206273
C         2.25172150243961    2.65341455158019   -0.60408711623598
C         3.44590794484508    0.57416171178439   -0.06960308846714
C         1.95637410768981    2.84841901652254    0.73771617044135
C        -0.32736133104968    3.52589286643250    0.16404187712163
C        -1.68191116881289    3.09492941163836    0.38984970852662
C         0.64610984499025    3.29595826312621    1.13061793199040
C        -2.01653668610725    2.44365522672188    1.57121403417507
C        -3.41547651546764    0.85485056649638    0.33598119114972
C        -3.49247328141083   -0.55392505736705    0.06669389854081
C        -2.89987650036053    1.30723546341155    1.54577860161765
C        -2.29494587340198   -2.62558768218964    0.61643584124998
C        -3.04407643443165   -1.47381548253397    1.01463194945464
C        -0.01805919730145   -3.30010589505038    1.25316074608726
C        -1.27511982591336   -2.86551849231276    1.62054001458944
C         2.14021028421411   -2.56423035164467    0.80968613245207
C         3.26636584337622   -1.59350578022649    0.94634752007339
C         1.12737084710078   -2.71004037298164    1.84569158507687
C         3.14068100935483    0.77760102347535    1.32447465311846
C         2.41522349214025    1.89883212263173    1.72131051402982
C         2.90619523386590   -0.49290563538115    1.92411321180159
C         0.29791885900222    2.62384706901736    2.35761608583570
C        -1.00822409915266    2.20385462746735    2.57187668729218
C         1.39582332213164    1.76478538780486    2.72033760421353
C        -2.43729525061634    0.35993503141579    2.52815776372747
C        -2.50752803620764   -1.00101870573973    2.27027952654578
C        -1.41582704009713   -1.86363028994805    2.63973920593607
C        -1.26583685174028    0.91490820240070    3.16309580149486
C         1.01439607016833   -1.77367217385656    2.85688605236839
C         1.91259823616818   -0.62486386674803    2.86538925633578
C         1.14703621124330    0.51622343268755    3.28008864323026
C        -0.28394247697015   -1.32798180256458    3.25334232094364
C        -0.20992214442826    0.08801969940583    3.51515433622393
Cl        4.78726815960107   -2.44807330459300    1.42193612433189
Cl        0.53809458388211   -5.53584995167997   -0.26304883060256
Cl        3.17832185969084   -3.85732767394630   -2.49786000999698
