144
 energy: -320.791009226493 gnorm: 0.000150243966 xtb: 6.4.1 (a3dbbd7)
C         3.64570607846499   -1.45662525470624    0.02221542478740
C         2.96157688982684   -2.15096476786861    1.33806197045659
C         2.63778016059629   -0.95477964733760    2.27391787038490
C         3.73054215788974    0.06940800349122    0.37765647867027
C         2.71332139402414    0.27158549984790    1.44101378778724
C         3.71737009268254    1.13742871794880   -0.75133007828285
C         3.05898998133468    0.74858610190421   -2.13127643118019
C         2.97713373747280   -1.82830256640945   -1.32604361826074
C         2.95096944165049   -0.77493708416634   -2.49376844907073
C         1.56620219406452   -2.31946168478544   -1.24699190013388
C         1.74715845760984   -3.12470919913542    1.08546159529875
C         1.03305393478606   -2.91796354854053   -0.21227374022915
C         0.53591747106192   -3.15370183265351    2.10091624190566
C         1.25898819498918   -0.89719768645259    2.81495193473803
C         0.31410272842991   -1.81403282915812    2.72367555015760
C         0.89004328621150    0.27551221746671    3.67391354832740
C         2.65211014113958    1.55728596291206    2.17055417393339
C         1.39643161007054    1.64917161948605    3.13947767761469
C         2.92686674689916    2.47533056943016   -0.32466250359075
C         2.47184946214582    2.73021931952203    1.16223782873612
C         1.77549114915757    1.53235636495908   -2.15024160300961
C         1.70162804815597    2.45864234164970   -1.21012023372338
C         0.89803306621613    1.43402683277328   -3.36398443348940
C         1.58454196209478   -1.11418934138256   -3.30105214416001
C         0.99987272511943   -2.41876350843129   -2.61936347002989
C         0.59109625646962   -0.01541868266767   -3.24542664230266
C        -0.53622425355329   -2.62405865328176   -2.60971587819123
C        -0.22411101984725   -3.73665811183177   -0.22989310092718
C        -0.74368657363968   -3.52979649339507    1.23239154865803
C        -1.19855964624064   -3.45759831846237   -1.42817590844157
C        -1.73860766972636   -2.41771928165261    1.30062801764570
C        -0.94190576244812   -1.41140286780175    3.47439635460844
C        -0.67864299749865    0.11027163401649    3.77630987476186
C        -2.19600428815706   -1.79462530362322    2.60518392141328
C        -1.38114302408187    0.97690603394831    2.79929924870453
C         0.41320651846880    2.38237989649344    2.26548304013226
C         0.96783793887048    2.95365804480690    1.21129465962335
C        -1.01513043546286    2.42753481762385    2.67950456613560
C         0.68699667902357    3.55751402017989   -1.20930683690056
C         0.21586957464466    3.84492709991217    0.28179866121984
C        -0.49264590064759    2.18851794782957   -3.23210326065957
C        -0.60789242385482    3.15706730624391   -1.99642850622059
C        -0.73385506878765   -0.18290769910138   -2.92699395891218
C        -1.29528537916994   -1.34678333433060   -2.55174402137079
C        -1.55847907133917    1.02105334386435   -3.23657367158825
C        -2.51971575242366   -2.64411200348342   -1.06560641647175
C        -2.44498094948451   -1.98676644227599    0.26463488856100
C        -2.71689991449118   -1.56777401870273   -2.19857605667548
C        -3.13703405636800   -0.64701184943984    2.11332494518538
C        -2.41756360722152    0.64408157637506    2.05826449201982
C        -3.58400355175366   -1.10070310874381    0.67704344199645
C        -2.01163115604073    3.02326319052371    1.62073144572224
C        -1.33657834970506    3.55756222536666    0.30301887488664
C        -1.49446579506160    2.66482937749669   -0.88933926668088
C        -3.06933272734488    1.82157990358193    1.41017078057650
C        -2.78469697429613    1.10296858008368   -2.30404688853325
C        -3.53107598704512   -0.25272149315035   -1.87322078522401
C        -3.99568794330534    0.02652922021785   -0.33727679483743
C        -2.42330849551955    1.74730769803475   -1.01533244954281
C        -3.50668565477832    1.50846871704483   -0.02931526905035
O         4.94884596210285   -1.95890650594685   -0.09260724603244
H         5.51543526285772   -1.44118200541457    0.50293012022224
O         5.05517079725870    1.48621125602466   -0.97411639412723
H         5.19646766888318    1.47487776102112   -1.93887012242822
O         3.83420698662846    1.73701219403861    2.93657936225812
H         3.71550158481777    2.58604951183300    3.39817474557886
O         3.95359986024011   -2.93668774507781    1.93280132855076
H         4.24187305271156   -2.45814232251648    2.73447546880044
O         3.15301717667371    3.82733264086713    1.69681321993225
H         3.29831318464593    4.45937541060525    0.97446950620086
O         3.70982864586902    3.57404691556423   -0.70960000894032
H         4.61823736091115    3.23404443120868   -0.83827916568107
O         3.56403694986444   -0.97040820089774    3.36072658880955
H         3.87874552385106   -0.06145046035399    3.50709272522227
O         3.89048960518762    1.34624516379566   -3.10990823590265
H         3.34857222710390    1.52924040689213   -3.89756562643032
O         4.01982337009430   -1.02476058845448   -3.35586274700871
H         4.33852753974543   -1.92776936500860   -3.15748928605947
O         3.68713385119046   -2.95847350606105   -1.84992302424379
H         4.42459183400911   -3.13480640041295   -1.23590806534354
O         0.75352023989685   -4.10797831737827    3.09334580147526
H        -0.02620594334379   -4.69665523695796    3.08760560662828
O         2.26967812477110   -4.43688191341397    1.00930628123495
H         3.02260005928977   -4.46787428409146    1.62790259126387
O        -2.95198653773672   -2.73324688289126    3.32777564074924
H        -3.84762500989981   -2.36686595466809    3.41901602915870
O        -1.00539948951017   -2.05776928811458    4.71823549200067
H        -1.72715258677354   -2.71422845842453    4.64347763878029
O         1.72804885935913    2.48579175766433    4.21412911112565
H         1.83731693374585    1.92475184697808    4.99909034623085
O         1.46217737895251    0.11785770205177    4.95744215022347
H         1.32141309150737   -0.79237507421391    5.24633396990535
O        -1.12924244647930    0.46744067381169    5.05504394372707
H        -1.19483676507990   -0.35836850901951    5.56805309086149
O        -4.22657317128033   -0.55352889522938    2.98855937969317
H        -4.59704188834911    0.34342147515413    2.90308132658883
O         1.60126467682912    1.84530882305109   -4.49998700709086
H         1.02729303183995    2.50345764505105   -4.94222209183366
O         1.23572465348994    4.70821681746952   -1.78359641235597
H         1.34712103739635    5.35128249941256   -1.05571868127583
O        -0.63024395942765    2.97284366299758   -4.38256633367605
H        -1.35019297646066    2.58814643920120   -4.90976461590380
O        -1.20301338633802    4.35330126908078   -2.45562557404681
H        -0.51354812894511    4.84223137763306   -2.93542593717507
O        -4.21597752519499    2.09005916768595    2.17853842044684
H        -4.68215340286330    2.81568910934329    1.73321877905636
O        -2.70160011048723    4.09093141759517    2.17716445346467
H        -2.44879667490598    4.14327478624070    3.11503702114780
O        -1.18299883427462    3.11132109885384    3.89748662845084
H        -1.03944699368058    2.48775230138218    4.62471774708491
O         0.46615061032364    5.18499002906841    0.59227331146494
H        -0.41599683732818    5.61234446122675    0.63994413785511
O        -3.62295522112387   -3.51313034811337   -1.01983412098957
H        -3.32680115759667   -4.35805391628660   -1.41391624256667
O        -1.63175478257086   -4.69494389255284   -1.91257640406726
H        -1.37008775615877   -4.74673284837686   -2.85110328127715
O        -0.88986254848119   -3.27801656233337   -3.82520245211695
H        -0.05909926576150   -3.51017128197021   -4.27428644597750
O        -4.69101364629169   -0.31535771395340   -2.64847539591965
H        -5.44621837203595   -0.25890071312868   -2.02034510851545
O        -5.39532367700072    0.07437639393162   -0.34362942141895
H        -5.70283007994587   -0.66862317710704    0.21953272942242
O        -3.74810199698318    1.93800000399714   -2.91229735157604
H        -4.42545865776168    1.33390330693792   -3.28674889406475
O        -4.71552989612994   -1.93546699791575    0.87116715186883
H        -4.64654211073577   -2.68819953969569    0.25445373164697
O        -1.31127089525421   -4.71207055406514    1.71529129563799
H        -1.08738262398977   -5.40429396014495    1.05933196208833
O        -2.01184379969943    0.91159880524317   -4.57448257715616
H        -2.65481749122669    0.19191644756354   -4.62389434955577
O         1.88670225308011   -1.36508921477743   -4.64171042371604
H         2.84345426446060   -1.20281031129554   -4.75880564328190
O         4.99403271644246    0.17593734718698    1.04740000129527
H         5.03512679782799    1.02892519678644    1.50676023450548
O         0.12201187818093   -5.09839021375413   -0.35692727637846
H         0.98622665072435   -5.22784642712288    0.07846064695792
O         1.50352481459338   -3.56068017685865   -3.27997512332824
H         2.42376087316685   -3.69601035924872   -3.00648420542803
O        -4.55607342407742    2.40588939347746   -0.30298844350415
H        -4.60720088359454    2.53483003178348   -1.26535067908635
O        -1.96708434929474    4.79064935729171    0.03861936198480
H        -1.99682141302581    4.91045598729882   -0.93009885978772
O        -3.38976080458146   -2.16118740228385   -3.28973808062843
H        -2.78280551912137   -2.77972937083255   -3.72315525066283
