148
 energy: -329.937250297117 gnorm: 0.000156438503 xtb: 6.4.1 (a3dbbd7)
C        -3.47947300000000   -1.66263900000000    0.29573600000000
C        -2.43325100000000   -2.84493700000000    0.40737600000000
C        -1.94015500000000   -3.13651900000000   -1.04822400000000
C        -3.18739100000000   -1.08562700000000   -1.13600600000000
C        -1.84789800000000   -1.71994300000000   -1.63749000000000
C        -3.55434900000000    0.39639000000000   -1.46790500000000
C        -3.64113500000000    1.46110100000000   -0.27839000000000
C        -3.52687600000000   -0.64326400000000    1.50258400000000
C        -3.42359600000000    0.91321900000000    1.16334500000000
C        -2.43414200000000   -0.78644200000000    2.67474200000000
C        -1.29229000000000   -2.51810200000000    1.29391900000000
C        -1.57505700000000   -2.05831400000000    2.68134400000000
C        -0.04576100000000   -2.92103700000000    1.13636600000000
C        -0.49022700000000   -3.62410000000000   -1.22128500000000
C         0.43073800000000   -3.77969400000000    0.02988500000000
C         0.11047000000000   -2.41623400000000   -1.91176100000000
C        -1.68713700000000   -1.46674600000000   -3.12927200000000
C        -0.22362800000000   -1.91605000000000   -3.30596700000000
C        -2.56118000000000    1.01299400000000   -2.51579300000000
C        -1.68408300000000    0.07614700000000   -3.41655300000000
C        -2.62484000000000    2.62780400000000   -0.69443700000000
C        -1.73653600000000    1.96547700000000   -1.69556900000000
C        -1.84369900000000    3.46925900000000    0.37523500000000
C        -2.10115500000000    1.33929100000000    1.73146200000000
C        -1.60326900000000    0.45228000000000    2.57226700000000
C        -1.74367800000000    2.78000800000000    1.78351800000000
C        -0.58648600000000    0.70115000000000    3.62227700000000
C        -0.14456800000000   -1.94863200000000    3.37587200000000
C         0.76777100000000   -2.81576100000000    2.38551800000000
C         0.40387900000000   -0.51187600000000    3.68125000000000
C         2.19158000000000   -2.30777500000000    2.06202200000000
C         1.89618500000000   -3.41460300000000   -0.45060900000000
C         1.62441500000000   -2.69272600000000   -1.82471300000000
C         2.82999100000000   -2.70664800000000    0.65450600000000
C         2.60218800000000   -1.58107400000000   -2.20436200000000
C         0.56656700000000   -0.62435300000000   -3.32775700000000
C        -0.22491000000000    0.42400900000000   -3.28658100000000
C         2.04566200000000   -0.55029800000000   -3.26844500000000
C        -0.55702600000000    2.41307100000000   -2.06605200000000
C         0.18052100000000    1.84915100000000   -3.23728100000000
C        -0.31878700000000    3.80206000000000   -0.01424400000000
C         0.16113200000000    3.55674700000000   -1.45976100000000
C        -0.27724300000000    2.98088600000000    2.27966700000000
C         0.30050100000000    1.98175600000000    3.35272500000000
C         0.46103200000000    3.00926200000000    0.97920000000000
C         1.47186100000000   -0.04357900000000    2.74596100000000
C         2.27211200000000   -0.81265700000000    2.05257700000000
C         1.73778500000000    1.40124700000000    3.00085800000000
C         3.55726700000000   -1.36297400000000    0.16614500000000
C         2.91876100000000   -0.74419800000000   -1.01711600000000
C         3.52559600000000   -0.36762100000000    1.36861700000000
C         2.56410300000000    0.84676800000000   -2.71629500000000
C         1.68947400000000    2.13202400000000   -2.94522300000000
C         1.71079500000000    3.21562500000000   -1.72755900000000
C         2.85627000000000    0.55038200000000   -1.27317400000000
C         1.69824100000000    2.62777000000000    0.78695300000000
C         2.55131400000000    2.07454300000000    1.87979500000000
C         3.61368500000000    1.18048000000000    1.09118700000000
C         2.53165800000000    2.87942900000000   -0.43144500000000
C         3.44228400000000    1.61319200000000   -0.42906200000000
O        -4.72238800000000   -2.31229800000000    0.22635700000000
H        -5.31845400000000   -1.87237200000000    0.86058000000000
O        -4.80925700000000    0.36156300000000   -2.08909900000000
H        -5.44228600000000    0.81269400000000   -1.49917800000000
O        -2.58001500000000   -2.14547500000000   -3.95655800000000
H        -2.08129000000000   -2.42782400000000   -4.73781500000000
O        -3.04895900000000   -3.97787800000000    0.96407700000000
H        -3.96719900000000   -3.96771500000000    0.62758000000000
O        -2.06881000000000    0.25092500000000   -4.76407600000000
H        -1.55800800000000    1.00458700000000   -5.10671900000000
O        -3.32554600000000    1.84639200000000   -3.36927500000000
H        -3.46288600000000    1.35159200000000   -4.19837600000000
O        -2.77802100000000   -4.06069300000000   -1.67668300000000
H        -3.59050800000000   -3.58157300000000   -1.92597100000000
O        -4.93668900000000    1.99240800000000   -0.28576500000000
H        -4.88195100000000    2.87467700000000   -0.70493400000000
O        -0.41414100000000   -4.83457100000000   -1.93679000000000
H        -1.31784700000000   -5.00379400000000   -2.26239200000000
O         0.40082000000000   -5.10013200000000    0.50775700000000
H         0.34671700000000   -5.67731900000000   -0.27260300000000
O        -3.11067700000000   -0.72772600000000    3.91147600000000
H        -3.23262300000000   -1.65928600000000    4.18729700000000
O        -2.30057100000000   -3.05304100000000    3.37364900000000
H        -2.68347800000000   -3.66128500000000    2.71159100000000
O        -2.64554400000000    3.37042400000000    2.68927900000000
H        -2.48532700000000    4.32737200000000    2.66785400000000
O        -0.21934600000000    4.29566600000000    2.80366600000000
H         0.11111200000000    4.20164400000000    3.72093200000000
O         0.42171700000000    2.69793100000000    4.55129000000000
H        -0.21528400000000    2.30496600000000    5.17761300000000
O        -1.22903100000000    0.89599500000000    4.85571200000000
H        -2.02854700000000    0.33294400000000    4.86515500000000
O         2.50506400000000   -4.63137600000000   -0.79152400000000
H         3.11258600000000   -4.85807100000000   -0.06156400000000
O         3.84877700000000   -3.62203000000000    0.94724400000000
H         4.62852300000000   -3.33238000000000    0.42601500000000
O        -4.76958200000000   -0.87116200000000    2.10724300000000
H        -5.04731000000000   -0.02056300000000    2.49826300000000
O        -4.40812600000000    1.50719800000000    1.99151500000000
H        -4.07122200000000    2.35762000000000    2.32707800000000
O         4.88624100000000   -1.66733700000000   -0.16945600000000
H         5.43735500000000   -1.34398300000000    0.56822400000000
O         4.69425500000000    1.93075300000000   -0.98233700000000
H         4.90073500000000    2.83151800000000   -0.66707400000000
O        -0.08444700000000   -2.73433800000000   -4.42074000000000
H         0.84808900000000   -2.98429800000000   -4.50010300000000
O        -0.24228700000000    2.45979500000000   -4.43890700000000
H         0.54122300000000    2.90656900000000   -4.80762200000000
O         2.54905100000000   -0.83079800000000   -4.53278600000000
H         3.51134100000000   -0.92576100000000   -4.43585800000000
O         3.79905600000000   -2.12763600000000   -2.68823500000000
H         3.60249900000000   -3.03444900000000   -2.97704400000000
O         2.19149400000000    2.78856000000000   -4.07402000000000
H         3.05256600000000    2.36869500000000   -4.27792800000000
O         3.80634600000000    1.06547800000000   -3.36563900000000
H         4.44428100000000    1.37940000000000   -2.69578000000000
O         4.62169900000000   -0.73259100000000    2.19197400000000
H         5.11022900000000    0.09447200000000    2.37778100000000
O         4.88876800000000    1.58596000000000    1.50317600000000
H         4.76392300000000    2.49153000000000    1.86574000000000
O         3.40555100000000    3.94757800000000   -0.12758000000000
H         3.18405000000000    4.68091300000000   -0.72687700000000
O         0.84763200000000   -4.08738800000000    2.98178600000000
H         0.92078200000000   -4.75624800000000    2.28213900000000
O         2.30693400000000    4.37396500000000   -2.23800200000000
H         1.63564400000000    4.80549700000000   -2.79836100000000
O        -0.21826900000000   -2.58712200000000    4.61329600000000
H         0.03367300000000   -3.51689500000000    4.46145500000000
O         0.98957200000000   -0.50278400000000    4.96619100000000
H         0.71905400000000   -1.34111000000000    5.39130500000000
O        -2.50679100000000    4.67988000000000    0.59750800000000
H        -2.87214400000000    4.97877800000000   -0.24857200000000
O        -4.07230400000000   -1.85658300000000   -1.93189400000000
H        -4.13968800000000   -1.48321300000000   -2.82416600000000
O         3.24811100000000    3.16155100000000    2.45128000000000
H         3.24390200000000    3.01436200000000    3.41478400000000
O         2.56539100000000    1.49797000000000    4.14115700000000
H         2.18127800000000    0.92771200000000    4.83086400000000
O        -0.09300700000000    5.17538100000000    0.21788000000000
H        -0.16942600000000    5.32989800000000    1.17410900000000
O         2.98700200000000   -2.78876100000000    3.10842300000000
H         3.87008700000000   -2.39736800000000    3.03402000000000
O        -0.15366200000000    4.69550300000000   -2.23450900000000
H        -0.20372300000000    5.44191300000000   -1.61235700000000
O        -3.39312600000000    3.59253200000000   -1.40818400000000
H        -3.49255200000000    3.26718500000000   -2.32536600000000
O         1.81837100000000   -3.64749500000000   -2.86045000000000
H         1.30796400000000   -4.44917500000000   -2.64661500000000
