132
 energy: -293.456503487056 gnorm: 0.000355591877 xtb: 6.4.1 (a3dbbd7)
C        -3.21831100000000   -0.85819800000000   -1.50544500000000
C        -2.16788300000000   -1.57357800000000   -2.44171700000000
C        -1.55907500000000   -0.43422500000000   -3.31776100000000
C        -2.67597600000000    0.54195300000000   -1.46787000000000
C        -1.86812800000000    0.79261000000000   -2.47959500000000
C        -3.36699300000000    1.60036600000000   -0.70260300000000
C        -3.57707600000000    1.12314900000000    0.78085500000000
C        -3.50776100000000   -1.49704200000000   -0.11047900000000
C        -3.54213100000000   -0.42916600000000    1.07455900000000
C        -2.48990100000000   -2.60794100000000    0.43214100000000
C        -1.10696100000000   -2.24673300000000   -1.64898200000000
C        -1.51931000000000   -3.22065400000000   -0.59881900000000
C         0.17325000000000   -2.34810200000000   -1.96652500000000
C        -0.01501900000000   -0.54134300000000   -3.70044900000000
C         0.82339700000000   -1.77719900000000   -3.16827500000000
C         0.69473000000000    0.58243000000000   -3.01851200000000
C        -1.29017000000000    2.13197700000000   -2.81435200000000
C         0.15447400000000    1.78824100000000   -2.65171700000000
C        -2.51167500000000    2.91268400000000   -0.58127500000000
C        -1.54054800000000    3.29048600000000   -1.75309500000000
C        -2.40183300000000    1.77720600000000    1.47381000000000
C        -1.80562900000000    2.70234200000000    0.72400400000000
C        -1.99517000000000    1.46382200000000    2.89400300000000
C        -2.33406600000000   -0.78945500000000    1.91201900000000
C        -1.79195300000000   -1.94573000000000    1.57627900000000
C        -2.06523600000000   -0.07581900000000    3.19404700000000
C        -0.84731800000000   -2.75731000000000    2.38640700000000
C        -0.15490500000000   -3.81009000000000   -0.02786500000000
C         0.90703800000000   -3.38149000000000   -1.17027600000000
C         0.23966700000000   -3.40309400000000    1.43382800000000
C         2.31679800000000   -2.85836100000000   -0.74476600000000
C         2.27089400000000   -1.20394900000000   -2.84055800000000
C         1.91852000000000    0.20080600000000   -2.50180900000000
C         3.11732600000000   -1.87718100000000   -1.70475200000000
C         2.58016000000000    1.02448900000000   -1.64029000000000
C         0.79042500000000    2.59128500000000   -1.72998000000000
C        -0.04390700000000    3.74782500000000   -1.29574400000000
C         2.01759800000000    2.22349500000000   -1.25617500000000
C        -0.72732500000000    3.61722100000000    1.25464100000000
C         0.31211100000000    4.13877700000000    0.19441900000000
C        -0.52366300000000    1.73679600000000    2.91331800000000
C         0.06349000000000    2.71956000000000    2.15445300000000
C        -0.66598200000000   -0.47733700000000    3.82640500000000
C        -0.02577500000000   -1.87557900000000    3.40567300000000
C         0.21390000000000    0.65237500000000    3.34285600000000
C         1.28959000000000   -2.35056100000000    1.51277700000000
C         2.24516000000000   -2.07532400000000    0.51645500000000
C         1.26040000000000   -1.65458000000000    2.64475900000000
C         3.87474900000000   -0.84531700000000   -0.63846200000000
C         3.83966600000000    0.70164200000000   -0.92332400000000
C         3.13668300000000   -1.09289800000000    0.63171900000000
C         2.80181600000000    2.93157800000000   -0.22354500000000
C         1.78628300000000    3.62991300000000    0.75229200000000
C         1.39527000000000    2.65015100000000    1.80497500000000
C         3.82372300000000    1.74458800000000    0.30599900000000
C         1.55153400000000    0.60656900000000    3.02122800000000
C         2.32854000000000   -0.66954000000000    3.01684400000000
C         3.44660000000000   -0.39763500000000    1.91952000000000
C         2.13777400000000    1.57857200000000    2.22456000000000
C         3.49555300000000    1.17661500000000    1.74245800000000
O        -4.43644900000000   -0.73979500000000   -2.21743100000000
H        -5.01262200000000   -1.46660100000000   -1.92373700000000
O        -4.58355400000000    1.92328100000000   -1.32142500000000
H        -4.92276400000000    1.12230700000000   -1.75501000000000
O        -1.67915700000000    2.50231900000000   -4.10817100000000
H        -2.05051900000000    3.39803800000000   -4.05464800000000
O        -2.79922600000000   -2.54875200000000   -3.23165200000000
H        -3.20723100000000   -2.07156400000000   -3.97352600000000
O        -2.10729300000000    4.36090800000000   -2.46031400000000
H        -2.86348500000000    4.66901800000000   -1.91283300000000
O        -3.40273800000000    4.00614900000000   -0.42983000000000
H        -4.27188300000000    3.64565000000000   -0.19824200000000
O        -2.31793600000000   -0.38703000000000   -4.49826000000000
H        -2.06376200000000    0.42288100000000   -4.96676600000000
O        -4.77122100000000    1.69332000000000    1.23808400000000
H        -5.30624400000000    0.98221200000000    1.63343500000000
O         0.11020300000000   -0.45671100000000   -5.08746900000000
H        -0.07336400000000   -1.33507300000000   -5.45405800000000
O         0.94150400000000   -2.77453000000000   -4.14703600000000
H         1.73538500000000   -2.50922600000000   -4.66262100000000
O        -3.24211800000000   -3.66780600000000    0.98710700000000
H        -3.28385100000000   -4.35563600000000    0.29192200000000
O        -2.20062400000000   -4.29674900000000   -1.22234100000000
H        -2.58968100000000   -3.97217500000000   -2.05259000000000
O        -3.11998300000000   -0.39600400000000    4.05969100000000
H        -2.92485100000000    0.03476100000000    4.90684800000000
O        -0.82585000000000   -0.43054100000000    5.21652000000000
H        -0.48726300000000   -1.27571600000000    5.56826800000000
O         0.21095500000000   -2.61056200000000    4.58431900000000
H        -0.31084300000000   -3.42772800000000    4.51448900000000
O        -1.53953400000000   -3.73288700000000    3.11755300000000
H        -2.29497700000000   -4.02639400000000    2.57606800000000
O         2.97226500000000   -1.26571600000000   -4.05947200000000
H         3.84278900000000   -1.65740900000000   -3.86928200000000
O         4.11588600000000   -2.58996100000000   -2.36291000000000
H         4.76233200000000   -2.85832300000000   -1.68870400000000
O        -4.76031900000000   -2.11163000000000   -0.23238700000000
H        -5.14463700000000   -2.16170800000000    0.65807700000000
O        -4.68693600000000   -0.74147100000000    1.85395500000000
H        -4.42802000000000   -0.68472200000000    2.79455300000000
O         5.20145700000000   -1.25842700000000   -0.54949100000000
H         5.72207100000000   -0.60490500000000   -1.05521000000000
O         4.96482500000000    0.96059900000000   -1.72789900000000
H         5.27478300000000    1.85516900000000   -1.51842300000000
O         5.09579300000000    2.30749400000000    0.34608300000000
H         5.28631700000000    2.49760200000000    1.28572700000000
O         4.46398300000000    1.67244600000000    2.63641300000000
H         5.04981000000000    0.91111000000000    2.83379100000000
O        -0.26629900000000   -5.20106500000000    0.00578900000000
H        -0.10926600000000   -5.52482300000000   -0.89691700000000
O         1.07245300000000   -4.53299100000000   -1.97097200000000
H         1.23138500000000   -4.24910600000000   -2.88643100000000
O         0.80129400000000   -4.51483500000000    2.09081000000000
H         0.33109300000000   -5.30521900000000    1.77862100000000
O         2.97040100000000   -1.03083500000000    4.21737100000000
H         2.33167700000000   -1.49213300000000    4.77582800000000
O         4.69804000000000   -0.82805100000000    2.38610600000000
H         4.54708200000000   -1.26686700000000    3.24107100000000
O         3.16685200000000   -3.96556000000000   -0.53769100000000
H         2.75676700000000   -4.54929300000000    0.11273900000000
O        -2.76430900000000    2.15999400000000    3.83434300000000
H        -2.68810300000000    3.10266400000000    3.63652300000000
O        -1.35787800000000    4.66617100000000    1.94926500000000
H        -1.10245700000000    5.49805700000000    1.52055800000000
O         2.45502100000000    4.73629000000000    1.29663700000000
H         1.83461300000000    5.48717300000000    1.28220400000000
O         3.59220900000000    3.90767100000000   -0.83211000000000
H         3.81529100000000    4.55387200000000   -0.14124200000000
O         0.30965500000000    5.53725900000000    0.27707200000000
H         0.48503800000000    5.84476700000000   -0.64083500000000
O         0.29508600000000    4.87850800000000   -2.07510400000000
H        -0.48690100000000    5.10075700000000   -2.61454000000000
