144
 energy: -320.804317048785 gnorm: 0.000607184957 xtb: 6.4.1 (a3dbbd7)
C        -3.79577800000000    0.75941900000000    0.51437300000000
C        -3.39327800000000    0.07084500000000    1.94244700000000
C        -2.97335600000000   -1.38280100000000    1.57657900000000
C        -3.66344700000000   -0.40968900000000   -0.52350700000000
C        -2.75649400000000   -1.40213800000000    0.10947100000000
C        -3.37177100000000   -0.08362700000000   -2.00993500000000
C        -2.64220100000000    1.27640900000000   -2.32687800000000
C        -3.05617100000000    2.09298500000000    0.20325300000000
C        -2.73237400000000    2.45915200000000   -1.28649100000000
C        -1.75840700000000    2.32799100000000    0.91305300000000
C        -2.33447200000000    0.82964000000000    2.82283200000000
C        -1.47183100000000    1.79140800000000    2.07141200000000
C        -1.26255600000000    0.01321200000000    3.64696600000000
C        -1.65288800000000   -1.84345700000000    2.08105500000000
C        -0.85765300000000   -1.24279500000000    2.95009500000000
C        -1.18875800000000   -3.21266900000000    1.68876500000000
C        -2.55295700000000   -2.72840100000000   -0.51874800000000
C        -1.38661700000000   -3.53749600000000    0.18381900000000
C        -2.43529100000000   -1.19116700000000   -2.71354500000000
C        -2.08713700000000   -2.54954300000000   -1.99803900000000
C        -1.26161700000000    0.84380500000000   -2.72485500000000
C        -1.14504200000000   -0.44549800000000   -2.96826800000000
C        -0.28708800000000    1.90730600000000   -3.07781200000000
C        -1.36985800000000    3.33060500000000   -1.19341100000000
C        -1.09739100000000    3.54593000000000    0.33424200000000
C        -0.17894000000000    2.67944500000000   -1.79797900000000
C         0.37115100000000    3.81751500000000    0.84218000000000
C        -0.36280100000000    2.26951500000000    2.94601800000000
C         0.02259900000000    0.95373300000000    3.71914600000000
C         0.75503800000000    2.97686300000000    2.14717600000000
C         1.12754400000000    0.21646800000000    3.04772700000000
C         0.34969100000000   -2.10113100000000    3.31029800000000
C         0.31341600000000   -3.22166500000000    2.20323500000000
C         1.61113600000000   -1.16471500000000    3.39764800000000
C         1.26037300000000   -2.91892100000000    1.09862700000000
C        -0.22681200000000   -3.18361400000000   -0.70031300000000
C        -0.57745000000000   -2.68150700000000   -1.86909400000000
C         1.12369800000000   -3.58494800000000   -0.24513500000000
C         0.04490500000000   -1.04265400000000   -3.65615900000000
C         0.40666000000000   -2.42403100000000   -2.95909100000000
C         1.17025900000000    1.41731100000000   -3.40121700000000
C         1.32576500000000   -0.14343800000000   -3.49174600000000
C         1.05498100000000    2.70056200000000   -1.32758300000000
C         1.54612000000000    3.49683100000000   -0.17663900000000
C         2.05772800000000    2.15228600000000   -2.30008600000000
C         1.78033500000000    2.03754800000000    1.62420500000000
C         1.95789500000000    0.80040000000000    2.12332500000000
C         2.65221400000000    2.69555100000000    0.63707200000000
C         2.77841700000000   -1.39701300000000    2.36581600000000
C         2.29826300000000   -2.10791900000000    1.15889300000000
C         3.23995800000000    0.05427300000000    1.96456200000000
C         2.31402900000000   -3.03504500000000   -1.10302000000000
C         1.87657900000000   -2.25975300000000   -2.40044200000000
C         1.98838100000000   -0.77046800000000   -2.30324200000000
C         3.17987000000000   -2.18078800000000   -0.05406800000000
C         3.14976800000000    1.30645800000000   -1.60905200000000
C         3.61043900000000    1.72955200000000   -0.14899700000000
C         3.95228400000000    0.29299100000000    0.59739700000000
C         2.75854400000000   -0.12356300000000   -1.46348300000000
C         3.68301700000000   -0.79387500000000   -0.51376800000000
O        -5.14024200000000    1.13536400000000    0.57827400000000
H        -5.67672300000000    0.35148300000000    0.38008700000000
O        -4.60921100000000   -0.09788300000000   -2.66907400000000
H        -4.66959000000000    0.73148900000000   -3.17736200000000
O        -3.75159100000000   -3.48831000000000   -0.46808100000000
H        -3.61062400000000   -4.23764900000000   -1.07304300000000
O        -4.56523000000000    0.03239100000000    2.70564400000000
H        -4.85613000000000   -0.89964200000000    2.72350500000000
O        -2.61025800000000   -3.62768900000000   -2.72089800000000
H        -2.71873800000000   -3.31976100000000   -3.63936100000000
O        -3.01142800000000   -1.51633900000000   -3.95156900000000
H        -3.92091400000000   -1.15201400000000   -3.93245900000000
O        -3.99132900000000   -2.27208600000000    2.03542500000000
H        -4.16587200000000   -2.92512300000000    1.33905600000000
O        -3.25693700000000    1.74843300000000   -3.51713100000000
H        -2.58722300000000    2.26132700000000   -4.00630000000000
O        -3.76031300000000    3.30558700000000   -1.70858400000000
H        -3.36868400000000    3.95570500000000   -2.31731900000000
O        -3.86905600000000    3.13155300000000    0.73436700000000
H        -4.78487400000000    2.94089800000000    0.47013100000000
O        -1.72835300000000   -0.32282300000000    4.91244700000000
H        -2.20279400000000    0.45095000000000    5.25862400000000
O        -3.03047400000000    1.60450200000000    3.78873100000000
H        -3.97006700000000    1.34947500000000    3.71027400000000
O         2.11139800000000   -1.21161600000000    4.71577000000000
H         3.04229600000000   -1.48226700000000    4.65210900000000
O         0.13363000000000   -2.75339900000000    4.53346400000000
H         0.70410400000000   -2.31541300000000    5.19146600000000
O        -1.59539500000000   -4.92335600000000    0.03741300000000
H        -2.04249100000000   -5.22943200000000    0.84462700000000
O        -1.93592900000000   -4.18231400000000    2.39559800000000
H        -1.96488400000000   -3.92738900000000    3.32614400000000
O         0.65049500000000   -4.46725000000000    2.73070400000000
H         0.48580900000000   -4.42311800000000    3.68894200000000
O         3.79791900000000   -2.11630600000000    3.00661200000000
H         4.35432600000000   -2.51706200000000    2.32044600000000
O        -0.81034600000000    2.68129400000000   -4.13124600000000
H        -0.11390000000000    2.70740100000000   -4.81598800000000
O        -0.23513800000000   -1.22530500000000   -5.00937100000000
H        -0.30324000000000   -2.18737000000000   -5.15502300000000
O         1.50536400000000    1.92800200000000   -4.66587100000000
H         2.21556000000000    2.58245800000000   -4.51477700000000
O         2.18197300000000   -0.43431700000000   -4.57822600000000
H         1.97376100000000    0.20049700000000   -5.28391400000000
O         4.32486500000000   -2.92954500000000    0.30418700000000
H         4.32145600000000   -3.69882900000000   -0.30991100000000
O         3.11371400000000   -4.11141000000000   -1.49602800000000
H         2.62276500000000   -4.92520200000000   -1.27424800000000
O         1.22332600000000   -4.98785700000000   -0.18520400000000
H         0.34009800000000   -5.34547700000000    0.00984700000000
O         0.36047800000000   -3.45624300000000   -3.89985600000000
H         1.29733500000000   -3.66526200000000   -4.10381600000000
O         4.88564000000000   -0.97982300000000   -1.23166600000000
H         5.40017400000000   -1.64384800000000   -0.74080100000000
O         4.05832500000000    0.54424300000000    2.99889400000000
H         4.97725400000000    0.45720200000000    2.68572700000000
O         5.32359700000000    0.27981400000000    0.88069300000000
H         5.70807400000000    1.03383600000000    0.38216300000000
O         3.48673100000000    3.64931200000000    1.27070900000000
H         3.00337700000000    4.00587500000000    2.03655200000000
O         4.83888300000000    2.37950000000000   -0.30915500000000
H         4.83651200000000    3.15452300000000    0.28063500000000
O         2.66742900000000    3.23278600000000   -2.96831300000000
H         2.94453400000000    3.88710800000000   -2.30910700000000
O        -0.85097500000000    3.24393600000000    3.83796000000000
H        -1.68179000000000    2.91598800000000    4.21589300000000
O         1.44214200000000    3.84846900000000    3.02490500000000
H         0.83056400000000    4.06376600000000    3.74830600000000
O         0.51246000000000    5.17524700000000    1.13943600000000
H        -0.34736100000000    5.50096200000000    1.44950400000000
O        -1.82887800000000    4.69668500000000    0.72733100000000
H        -2.76272500000000    4.41777900000000    0.84295000000000
O        -4.95280300000000   -1.03932600000000   -0.46822400000000
H        -4.90830000000000   -1.89117900000000   -0.92814000000000
O        -1.57741400000000    4.55746000000000   -1.83558200000000
H        -1.77156300000000    5.20786600000000   -1.13434000000000
O         2.10600300000000    4.67008500000000   -0.69693700000000
H         1.90121900000000    5.38720500000000   -0.07271100000000
O         2.73832100000000   -2.73001000000000   -3.41299700000000
H         2.87166100000000   -2.00618700000000   -4.05246700000000
O         4.24678400000000    1.37031100000000   -2.48143600000000
H         4.86829700000000    0.66238500000000   -2.24850600000000
O         0.34399100000000    1.27113900000000    5.04398800000000
H         0.90826000000000    0.57271100000000    5.40124500000000
