148
 energy: -329.936540976925 gnorm: 0.000108703311 xtb: 6.4.1 (a3dbbd7)
C        -2.16325500000000    3.09033200000000    0.72496700000000
C        -3.10478000000000    2.07510400000000   -0.03501400000000
C        -2.67380300000000    2.13262200000000   -1.52913700000000
C        -1.00623000000000    3.33435400000000   -0.33002600000000
C        -1.14943100000000    2.26814800000000   -1.44378600000000
C         0.37095300000000    3.79668300000000    0.19805600000000
C         0.81865400000000    3.24346600000000    1.57051900000000
C        -1.79566800000000    2.69518900000000    2.21480200000000
C        -0.25411400000000    2.72121300000000    2.57948300000000
C        -2.26460700000000    1.25791600000000    2.78962400000000
C        -3.01456700000000    0.68908900000000    0.48305700000000
C        -3.24707200000000    0.44675400000000    1.93468500000000
C        -3.10698500000000   -0.41140500000000   -0.24086300000000
C        -2.78654600000000    0.85798100000000   -2.38755300000000
C        -3.31414400000000   -0.44906400000000   -1.70892100000000
C        -1.31701200000000    0.54712500000000   -2.61591800000000
C        -0.29867100000000    2.67595900000000   -2.63716900000000
C        -0.40298700000000    1.37972500000000   -3.49016400000000
C         1.57999000000000    3.49050800000000   -0.81954800000000
C         1.20374900000000    2.78772500000000   -2.17776700000000
C         1.84546500000000    2.21419200000000    1.22098100000000
C         2.65261700000000    2.68689200000000    0.06942600000000
C         2.19412700000000    1.20773200000000    1.98391200000000
C         0.06686400000000    1.29806800000000    2.94673700000000
C        -0.98660900000000    0.52093000000000    3.02137500000000
C         1.46029800000000    0.91384100000000    3.25767600000000
C        -1.00183300000000   -0.81310900000000    3.65288300000000
C        -3.20469200000000   -1.13899000000000    2.10491200000000
C        -3.41562100000000   -1.62387200000000    0.58289500000000
C        -1.96175100000000   -1.76174900000000    2.84424300000000
C        -2.60335500000000   -2.84306700000000    0.08468300000000
C        -2.55982900000000   -1.64868500000000   -2.40673800000000
C        -1.38657100000000   -0.89202400000000   -3.15351000000000
C        -2.24578900000000   -2.91989400000000   -1.47453200000000
C        -0.08332200000000   -1.66889000000000   -3.28232200000000
C         1.03930000000000    0.73821000000000   -3.49810700000000
C         1.63808200000000    1.34810200000000   -2.26278700000000
C         1.20052200000000   -0.81509600000000   -3.60308700000000
C         3.42890300000000    1.51214500000000   -0.55499000000000
C         2.58871200000000    0.79324000000000   -1.54826100000000
C         3.38551600000000    0.33282500000000    1.84913000000000
C         4.00060900000000    0.34030300000000    0.39547600000000
C         1.73607800000000   -0.59719600000000    3.55853700000000
C         0.42380000000000   -1.53035500000000    3.69329200000000
C         2.83210800000000   -1.00270900000000    2.45784300000000
C        -1.00226000000000   -2.42470800000000    1.92645300000000
C        -1.25931200000000   -2.91090600000000    0.73635300000000
C         0.30386400000000   -2.68055500000000    2.62798900000000
C        -0.72616400000000   -3.40931100000000   -1.50648200000000
C         0.22182100000000   -2.39135800000000   -2.01708400000000
C        -0.34308600000000   -3.79707200000000   -0.05552600000000
C         2.29584700000000   -1.45908800000000   -2.61501400000000
C         3.24008400000000   -0.49701100000000   -1.88674600000000
C         3.86851000000000   -0.99768100000000   -0.51947900000000
C         1.48469700000000   -2.26711200000000   -1.65573300000000
C         2.29831100000000   -1.84756800000000    1.37428900000000
C         1.28724100000000   -2.67998500000000    1.52280200000000
C         1.16540200000000   -3.66489000000000    0.38652800000000
C         3.16731500000000   -2.20151800000000    0.20737100000000
C         2.18644100000000   -3.08850800000000   -0.64691600000000
O        -2.88259100000000    4.29997700000000    0.75909300000000
H        -2.98569000000000    4.54934600000000    1.69648000000000
O         0.30584600000000    5.19466600000000    0.39463200000000
H        -0.41613400000000    5.51752800000000   -0.18169300000000
O        -0.71572100000000    3.79722100000000   -3.34374800000000
H        -0.80637300000000    3.51658400000000   -4.27174900000000
O        -4.44744200000000    2.46107700000000    0.11806300000000
H        -4.45702000000000    3.43355700000000    0.03579000000000
O         1.88121900000000    3.45896600000000   -3.22134700000000
H         2.20462000000000    4.30133600000000   -2.85126600000000
O         2.16322700000000    4.71486200000000   -1.15789000000000
H         1.71756400000000    5.40070700000000   -0.61982200000000
O        -3.36823700000000    3.19825300000000   -2.12718900000000
H        -3.50817900000000    2.94513700000000   -3.05957300000000
O         1.58407600000000    4.24732300000000    2.21713700000000
H         1.02805800000000    5.03541500000000    2.31237900000000
O        -0.15127400000000    3.48825700000000    3.76363800000000
H         0.66191400000000    3.19866900000000    4.21527800000000
O        -2.45373900000000    3.64721500000000    3.01003000000000
H        -1.92923000000000    3.74645500000000    3.82407300000000
O        -3.52131000000000    1.12463100000000   -3.54917300000000
H        -4.40651100000000    0.74370200000000   -3.42015600000000
O        -4.69588900000000   -0.58256300000000   -1.95025300000000
H        -4.74135600000000   -1.21754000000000   -2.70870300000000
O        -3.43876000000000   -2.09830700000000   -3.40636200000000
H        -3.60453900000000   -3.05016700000000   -3.20970000000000
O        -3.00181700000000   -3.98230800000000   -1.99386500000000
H        -2.35577000000000   -4.56280500000000   -2.45936700000000
O        -0.62707800000000   -4.54234200000000   -2.33702900000000
H        -0.51802100000000   -5.30746600000000   -1.73812200000000
O         2.85035400000000   -4.15523100000000   -1.26582700000000
H         3.18738800000000   -3.83380500000000   -2.12227800000000
O         3.86997600000000   -1.73316400000000    3.05927900000000
H         3.93018400000000   -1.39856700000000    3.97528400000000
O         0.29159900000000   -3.94207200000000    3.22828900000000
H        -0.46000400000000   -3.96767000000000    3.84001500000000
O        -0.74729200000000   -5.14193900000000    0.11646400000000
H        -0.08204400000000   -5.54098000000000    0.71381000000000
O         1.60362800000000   -4.93043700000000    0.80753700000000
H         2.38093200000000   -5.15787400000000    0.27043800000000
O         2.41828300000000   -0.64812600000000    4.77892400000000
H         1.96257500000000   -1.33573100000000    5.31248300000000
O         0.52283800000000   -2.15306500000000    4.94796700000000
H        -0.22823900000000   -1.83617200000000    5.48356400000000
O         4.18870800000000   -3.06497600000000    0.68427200000000
H         4.32748500000000   -2.87381700000000    1.62927700000000
O         5.17025600000000   -1.41247900000000   -0.83584100000000
H         5.30690600000000   -2.26805200000000   -0.37436000000000
O        -4.30763000000000   -1.52253500000000    2.86343300000000
H        -5.03068800000000   -1.70786600000000    2.23602000000000
O        -4.79295900000000   -1.89892700000000    0.47060200000000
H        -5.10673000000000   -1.57350400000000   -0.39040900000000
O         4.32488900000000    0.83621900000000    2.77832400000000
H         5.15850400000000    0.96210500000000    2.29205000000000
O         5.36607400000000    0.58483300000000    0.57365000000000
H         5.83932700000000   -0.02517900000000   -0.03116200000000
O        -0.83774000000000    1.69299300000000   -4.77559400000000
H        -1.42140800000000    0.97043600000000   -5.06742100000000
O        -0.30048600000000   -2.62186500000000   -4.30225300000000
H         0.53326600000000   -2.71225900000000   -4.79064200000000
O         1.57193900000000   -1.14641400000000   -4.90815500000000
H         1.92591100000000   -0.33734700000000   -5.31706300000000
O        -4.55434500000000    0.86171700000000    2.27886700000000
H        -4.86305900000000    1.48657300000000    1.59612000000000
O        -2.85862400000000    1.45655900000000    4.05223200000000
H        -3.82482700000000    1.44710400000000    3.89763000000000
O         3.07373000000000   -2.38350200000000   -3.34174800000000
H         3.81557600000000   -1.87990000000000   -3.71710400000000
O         4.52745100000000    2.02717700000000   -1.27489700000000
H         4.85761600000000    2.78588400000000   -0.76758000000000
O        -1.44253900000000   -0.67737000000000    4.98313700000000
H        -2.09930000000000    0.04316000000000    5.00622600000000
O        -1.38876100000000    4.48240100000000   -1.06573100000000
H        -2.23802500000000    4.33922300000000   -1.53078300000000
O        -2.38193100000000   -2.77377500000000    3.73062900000000
H        -3.34940300000000   -2.68185300000000    3.81386200000000
O         3.63719500000000    3.58779800000000    0.51878900000000
H         3.23780300000000    4.14586900000000    1.20655100000000
O        -3.34983900000000   -3.96715800000000    0.45472800000000
H        -2.79565400000000   -4.75502800000000    0.34964300000000
O         1.92176900000000    1.74127100000000    4.29988000000000
H         2.86248300000000    1.54519500000000    4.42613500000000
O         1.73418900000000    1.24633700000000   -4.61732300000000
H         1.88286400000000    2.19759100000000   -4.46932400000000
O         4.27837300000000   -0.23600000000000   -2.80601400000000
H         4.74578400000000    0.56363800000000   -2.51377100000000
O        -1.84273400000000   -0.67828400000000   -4.47681200000000
H        -1.58849800000000   -1.48491900000000   -4.96819800000000
