18
   -18.98671586
    C          -1.18857625          -0.82587747          -0.24145859
    C           0.12092793          -1.44214899           0.24182106
    C           1.30946471          -0.61636426          -0.24164390
    C           1.18857625           0.82587747           0.24145859
    C          -0.12092793           1.44214899          -0.24182106
    C          -1.30946471           0.61636426           0.24164390
    H           2.24091275          -1.05481791           0.12343425
    H           0.12371205          -1.47435596           1.33406153
    H           0.20692242          -2.46806202          -0.12318830
    H          -1.21517014          -0.84445971          -1.33366148
    H          -2.03400358          -1.41327363           0.12366591
    H           1.21517014           0.84445971           1.33366148
    H           2.03400358           1.41327363          -0.12366591
    H          -0.20692242           2.46806202           0.12318830
    H          -0.12371205           1.47435596          -1.33406153
    H          -1.33875996           0.63018293           1.33385440
    H          -2.24091275           1.05481791          -0.12343425
    H           1.33875996          -0.63018293          -1.33385440
