148
 energy: -329.924710614441 gnorm: 0.000463620961 xtb: 6.4.1 (a3dbbd7)
C        -2.33296300000000    3.20946900000000    0.32170400000000
C        -1.15335200000000    3.26115700000000    1.39988000000000
C        -1.50787000000000    2.21639900000000    2.47764200000000
C        -3.17441000000000    1.93305700000000    0.75347300000000
C        -2.25884600000000    1.21309500000000    1.66852300000000
C        -3.84758500000000    1.00544100000000   -0.28311300000000
C        -3.29991700000000    1.03362700000000   -1.75776600000000
C        -1.85808800000000    3.34464300000000   -1.18997100000000
C        -2.35445400000000    2.20369900000000   -2.22054600000000
C        -0.28994500000000    3.41046000000000   -1.48155100000000
C         0.20150200000000    2.96429900000000    0.87026300000000
C         0.67860200000000    3.69805900000000   -0.32922500000000
C         1.16892600000000    2.34443100000000    1.52803300000000
C        -0.35778700000000    1.54791400000000    3.31065300000000
C         1.08440600000000    1.94329200000000    2.95390500000000
C        -0.33472100000000    0.05921000000000    3.13724800000000
C        -2.68497800000000    0.01086700000000    2.41353500000000
C        -1.39412100000000   -0.64300200000000    2.80128100000000
C        -3.75748500000000   -0.56496700000000    0.10721700000000
C        -3.46484200000000   -1.02912400000000    1.57516800000000
C        -2.58132000000000   -0.29389000000000   -1.91386200000000
C        -2.79645800000000   -1.12472300000000   -0.90881100000000
C        -1.98498300000000   -0.70921600000000   -3.21563300000000
C        -1.08950200000000    1.53191500000000   -2.67806900000000
C         0.00796600000000    2.09063600000000   -2.09445800000000
C        -0.99489600000000    0.45074000000000   -3.69428300000000
C         1.27421200000000    1.64876700000000   -2.26145200000000
C         2.21004800000000    3.22412200000000   -0.49123400000000
C         2.51712600000000    2.61459700000000    0.93555400000000
C         2.47906000000000    2.30334000000000   -1.72154700000000
C         3.50294000000000    1.43171200000000    1.07383300000000
C         2.00807300000000    0.71619300000000    3.30624000000000
C         0.96711300000000   -0.47547800000000    3.65068500000000
C         3.04755500000000    0.35792700000000    2.18659300000000
C         1.21653700000000   -1.95645900000000    3.20261100000000
C        -1.48790000000000   -2.11760300000000    2.80771000000000
C        -2.64130000000000   -2.42727200000000    1.72224300000000
C        -0.07952900000000   -2.73025300000000    2.62893900000000
C        -2.59564600000000   -2.59920400000000   -0.96139900000000
C        -2.11411000000000   -3.12987900000000    0.42762800000000
C        -1.09553700000000   -1.98603000000000   -3.06703900000000
C        -1.49668100000000   -3.07140800000000   -2.00193800000000
C         0.43866800000000   -0.20414200000000   -3.74918300000000
C         1.63901400000000    0.67780200000000   -3.31898300000000
C         0.26662400000000   -1.39389800000000   -2.86874900000000
C         3.49555700000000    1.10951600000000   -1.61689100000000
C         3.74718800000000    0.51486400000000   -0.19447100000000
C         2.94944900000000    0.00412100000000   -2.70456000000000
C         2.61413800000000   -0.82742400000000    1.37674800000000
C         2.29916600000000   -2.10996000000000    2.06356200000000
C         3.00017900000000   -0.75564200000000    0.11243100000000
C         0.26290800000000   -2.91544300000000    1.19057100000000
C        -0.62752100000000   -3.08098600000000    0.24583300000000
C        -0.28437000000000   -3.59676800000000   -1.11244600000000
C         1.73150600000000   -3.16384100000000    1.06316700000000
C         1.26388300000000   -1.93297200000000   -2.21619900000000
C         2.69242700000000   -1.48270800000000   -2.23735900000000
C         3.14393800000000   -1.90910400000000   -0.81690600000000
C         1.16279700000000   -3.26426200000000   -1.54953400000000
C         2.27625300000000   -3.17733200000000   -0.41283700000000
O        -3.16369100000000    4.31598400000000    0.57564900000000
H        -2.63760500000000    4.94870300000000    1.10462700000000
O        -5.19943800000000    1.34108100000000   -0.38904400000000
H        -5.44702200000000    1.81253200000000    0.42612600000000
O        -3.39974100000000    0.39688700000000    3.58055600000000
H        -4.16932300000000   -0.19037800000000    3.64639300000000
O        -1.10050800000000    4.56548200000000    1.95993900000000
H        -1.44642900000000    4.48740400000000    2.86745500000000
O        -4.69280400000000   -1.20813100000000    2.22457500000000
H        -5.32359700000000   -1.52992000000000    1.55748500000000
O        -5.03081200000000   -1.11190700000000   -0.22072000000000
H        -5.53815200000000   -0.37546400000000   -0.62806800000000
O        -2.36240800000000    2.90915600000000    3.39707800000000
H        -2.56843800000000    2.27349000000000    4.10433000000000
O        -4.42038900000000    0.96126200000000   -2.58906900000000
H        -4.35909700000000    1.67740100000000   -3.24271800000000
O        -3.80538600000000   -3.21544700000000   -1.33800800000000
H        -4.53954300000000   -2.64153700000000   -1.05471700000000
O        -3.00967700000000   -0.90157500000000   -4.13367900000000
H        -2.64589700000000   -1.45122900000000   -4.84888600000000
O        -0.55780700000000    1.80659100000000    4.68499700000000
H         0.03942900000000    2.54242200000000    4.91267200000000
O        -2.97943300000000    2.83542500000000   -3.31388100000000
H        -2.85278000000000    3.79725300000000   -3.18183000000000
O        -2.35921600000000    4.56219400000000   -1.67408800000000
H        -3.08536500000000    4.82779400000000   -1.07213900000000
O         1.39838500000000    3.06706300000000    3.74112000000000
H         2.22379800000000    3.44966100000000    3.39211100000000
O         2.68801600000000    1.05012900000000    4.47187000000000
H         3.61319700000000    0.76073400000000    4.35328200000000
O         4.24794300000000    0.00281200000000    2.85017400000000
H         4.29512500000000   -0.97213100000000    2.89881100000000
O        -1.08908000000000   -2.59077600000000   -4.35036600000000
H        -1.30532300000000   -3.53374500000000   -4.20164800000000
O        -1.99807500000000   -4.17175700000000   -2.70847700000000
H        -2.94989500000000   -4.22965400000000   -2.50432100000000
O         3.51973500000000   -2.55689500000000    2.61118600000000
H         3.28571800000000   -3.15990400000000    3.33980000000000
O         1.97362400000000   -4.43019100000000    1.64963200000000
H         2.43098800000000   -4.96020000000000    0.96606500000000
O         3.07823700000000   -4.31820600000000   -0.53321300000000
H         4.00637000000000   -4.02144100000000   -0.49042000000000
O         4.50636800000000   -2.28479300000000   -0.86771100000000
H         4.65281200000000   -2.52913400000000   -1.80836400000000
O         3.41424900000000   -2.34276300000000   -3.09337700000000
H         3.26903800000000   -2.06688500000000   -4.00710500000000
O         3.90172700000000   -0.08389800000000   -3.71446100000000
H         4.59900600000000    0.57176200000000   -3.50604900000000
O         3.02484900000000    4.33652100000000   -0.67378300000000
H         2.55470300000000    5.10780100000000   -0.31466800000000
O         3.01154600000000    3.68774300000000    1.72285200000000
H         3.98088000000000    3.67009400000000    1.62770900000000
O         0.67888900000000    5.09676300000000   -0.09552300000000
H         0.33030500000000    5.26546600000000    0.79229200000000
O        -0.05297900000000    4.33745900000000   -2.51264200000000
H        -0.09187200000000    5.22360900000000   -2.12153600000000
O         4.71128000000000    2.01010600000000    1.45321700000000
H         5.41676400000000    1.39353700000000    1.19079800000000
O         5.12280900000000    0.19262800000000   -0.10821700000000
H         5.26256300000000   -0.69208900000000   -0.48879000000000
O        -1.34404300000000    0.90229600000000   -4.96897000000000
H        -2.13774200000000    1.44978000000000   -4.89090800000000
O        -2.43937200000000   -4.50633700000000    0.47837500000000
H        -3.13597800000000   -4.60650100000000    1.15146300000000
O        -3.53619800000000   -3.33131300000000    2.30313800000000
H        -3.45360900000000   -3.20500400000000    3.27040700000000
O         4.74169000000000    1.55345200000000   -2.06481400000000
H         4.60567000000000    2.43534300000000   -2.45762300000000
O         2.02709200000000    1.44305700000000   -4.43414800000000
H         1.85530100000000    0.89942000000000   -5.21930300000000
O         1.69876500000000   -2.69576200000000    4.28818800000000
H         1.43268300000000   -2.22445600000000    5.09576700000000
O        -4.26898600000000    2.39043200000000    1.55111500000000
H        -3.90589800000000    2.78470100000000    2.36476100000000
O         0.73853300000000   -0.63233000000000   -5.05571300000000
H         0.09106400000000   -1.30987900000000   -5.30413900000000
O        -0.15390100000000   -3.98901900000000    3.25695600000000
H         0.63675400000000   -4.49314400000000    2.99964500000000
O         0.86834100000000   -0.54434600000000    5.05842500000000
H         0.46876500000000    0.28523700000000    5.36938600000000
O        -1.99426000000000   -2.51307500000000    4.06488700000000
H        -1.47812100000000   -3.29586800000000    4.32817900000000
O         1.55789400000000   -4.20045000000000   -2.50905400000000
H         1.23338200000000   -5.06489300000000   -2.21185300000000
O        -0.31020100000000   -5.00341800000000   -1.06300700000000
H        -1.15306100000000   -5.27061300000000   -0.65980300000000
O         3.00997100000000    3.13245500000000   -2.74329300000000
H         2.28823500000000    3.62893300000000   -3.15117600000000
