124
 energy: -275.122931399350 gnorm: 0.000389129425 xtb: 6.4.1 (a3dbbd7)
C         2.03963200000000   -2.05362600000000   -1.92874000000000
C         2.12266100000000   -0.63331000000000   -2.60852000000000
C         0.76806300000000   -0.47491900000000   -3.36516100000000
C         0.55320000000000   -2.24770200000000   -1.80726600000000
C        -0.11796300000000   -1.47469700000000   -2.64006700000000
C         0.00116700000000   -3.49056600000000   -1.22609900000000
C         0.64954900000000   -3.74579800000000    0.19460300000000
C         2.86119800000000   -2.27634800000000   -0.62214400000000
C         2.03799400000000   -3.03225700000000    0.51823700000000
C         3.43113700000000   -0.98183900000000    0.13206000000000
C         2.30770600000000    0.45464700000000   -1.60880600000000
C         3.45355200000000    0.33989600000000   -0.66168000000000
C         1.80107700000000    1.67649600000000   -1.66073300000000
C         0.12584800000000    0.97686700000000   -3.41555400000000
C         0.88683200000000    2.18144600000000   -2.71510000000000
C        -1.14263800000000    0.94288500000000   -2.62992300000000
C        -1.59585700000000   -1.52960400000000   -2.88747500000000
C        -1.94775200000000   -0.14900700000000   -2.43141800000000
C        -1.55659400000000   -3.39900700000000   -0.97775800000000
C        -2.43172200000000   -2.48678600000000   -1.93139200000000
C        -0.40906400000000   -3.17034900000000    1.09873100000000
C        -1.60707000000000   -2.93545200000000    0.44093700000000
C        -0.19997800000000   -2.63520600000000    2.34788100000000
C         1.90303400000000   -1.98197800000000    1.60010300000000
C         2.62058600000000   -0.89706500000000    1.38194100000000
C         1.17806000000000   -2.30428200000000    2.86803000000000
C         2.97113300000000    0.13277700000000    2.39350500000000
C         3.42208700000000    1.68353900000000    0.19344600000000
C         2.46499800000000    2.63952300000000   -0.71342900000000
C         3.02279600000000    1.57020300000000    1.72122300000000
C         1.42369500000000    3.57045200000000   -0.00816100000000
C        -0.25528800000000    3.09799500000000   -2.09677200000000
C        -1.32720900000000    2.08189000000000   -1.86776000000000
C         0.05781900000000    3.92307700000000   -0.79923500000000
C        -2.31503300000000    2.10631400000000   -0.92357000000000
C        -2.90374200000000   -0.14593000000000   -1.43817500000000
C        -3.50220600000000   -1.48770000000000   -1.19440000000000
C        -3.08719700000000    0.97985600000000   -0.68710800000000
C        -2.59475100000000   -2.17325900000000    1.02608200000000
C        -3.79964600000000   -1.63401000000000    0.33893700000000
C        -1.17604100000000   -1.81813400000000    2.90860100000000
C        -2.38973400000000   -1.61367300000000    2.26456900000000
C         0.95604500000000   -1.05873800000000    3.82202700000000
C         1.88094300000000    0.23302000000000    3.53287400000000
C        -0.53714000000000   -0.77676100000000    3.65410800000000
C         1.65077500000000    2.06237100000000    2.00326500000000
C         0.93408000000000    2.94629200000000    1.24279700000000
C         1.04792500000000    1.37927100000000    3.04771400000000
C        -1.10717300000000    3.86558600000000    0.37070400000000
C        -2.51553100000000    3.18343200000000    0.07626300000000
C        -0.41595300000000    3.13685400000000    1.46360000000000
C        -3.98291400000000    1.11596700000000    0.49460600000000
C        -4.16549600000000   -0.27839600000000    1.22348400000000
C        -3.33738200000000   -0.47313900000000    2.56492800000000
C        -3.30365900000000    2.36637500000000    1.24766900000000
C        -1.14244900000000    0.43397200000000    3.58430100000000
C        -0.29686200000000    1.55646700000000    3.26896100000000
C        -1.04776200000000    2.41553400000000    2.44563500000000
C        -2.41873400000000    0.66318400000000    2.90573000000000
C        -2.37147200000000    1.86803500000000    2.28406000000000
O         2.42414900000000   -3.02684000000000   -2.88209600000000
H         3.38608100000000   -3.13652000000000   -2.82172800000000
O         0.23997000000000   -4.57092200000000   -2.09003400000000
H         1.06259100000000   -4.39019700000000   -2.57629300000000
O        -1.84353500000000   -1.78680200000000   -4.24079600000000
H        -2.44162000000000   -2.55033000000000   -4.28672900000000
O         3.21086800000000   -0.58751600000000   -3.49806500000000
H         2.86751800000000   -0.89147800000000   -4.35656400000000
O        -3.17354100000000   -3.33525600000000   -2.76215900000000
H        -3.09957100000000   -4.22853900000000   -2.35299200000000
O        -2.08457800000000   -4.70879800000000   -1.06255100000000
H        -1.34228900000000   -5.30788600000000   -1.24529300000000
O         0.99476400000000   -0.92583800000000   -4.67390300000000
H         0.17026300000000   -0.79190700000000   -5.16688700000000
O         0.76116100000000   -5.12738800000000    0.37672100000000
H         1.70547000000000   -5.33831800000000    0.48073900000000
O        -0.10631200000000    1.30740000000000   -4.75211000000000
H         0.64232700000000    1.86423500000000   -5.03277100000000
O         1.60782600000000    2.89391200000000   -3.67224700000000
H         1.05259100000000    3.67151100000000   -3.88786300000000
O         4.76080800000000   -1.24999200000000    0.53553300000000
H         5.32597300000000   -0.83401500000000   -0.14895000000000
O         4.66177100000000    0.34805100000000   -1.40104700000000
H         4.46318100000000    0.08023400000000   -2.31475200000000
O         1.85644000000000   -3.34272000000000    3.52473900000000
H         1.75277600000000   -3.17193200000000    4.47931500000000
O         1.20918900000000   -1.49710500000000    5.12773700000000
H         1.75253100000000   -0.79804800000000    5.54894900000000
O         2.52715600000000    0.55166000000000    4.74071600000000
H         3.48144300000000    0.43264500000000    4.58947100000000
O         4.19182200000000   -0.20060200000000    2.99669400000000
H         4.77600500000000   -0.56195400000000    2.30521000000000
O        -0.62805200000000    3.97522600000000   -3.13280800000000
H        -0.62006100000000    4.87584000000000   -2.76155400000000
O         0.15471600000000    5.25485300000000   -1.21009200000000
H        -0.02818300000000    5.79700600000000   -0.41871800000000
O         3.96056800000000   -3.04971000000000   -1.00933900000000
H         4.37577000000000   -3.39361100000000   -0.20412500000000
O         2.91180900000000   -4.02422700000000    1.03248800000000
H         2.73769600000000   -4.09981400000000    1.98770100000000
O        -1.34924400000000    5.18984300000000    0.75988400000000
H        -2.19454500000000    5.43677700000000    0.33119800000000
O        -3.36888100000000    4.20247600000000   -0.37007100000000
H        -4.07637300000000    4.27387100000000    0.30314500000000
O        -4.30212200000000    3.18486800000000    1.77210700000000
H        -5.14102800000000    2.85274800000000    1.38398400000000
O        -4.86515100000000   -2.52175700000000    0.50968000000000
H        -5.43755300000000   -2.40700600000000   -0.27246900000000
O        -5.52826800000000   -0.34382800000000    1.51777300000000
H        -5.68394800000000   -1.15691000000000    2.01986900000000
O        -4.26262500000000   -0.78477900000000    3.58383400000000
H        -3.77801900000000   -0.89135700000000    4.40978300000000
O        -4.74215900000000   -1.61864700000000   -1.84660900000000
H        -4.62296100000000   -2.27710500000000   -2.55629400000000
O        -5.24682300000000    1.59152500000000    0.08900600000000
H        -5.90198200000000    0.90671000000000    0.30209200000000
O         2.06739800000000    4.76873200000000    0.33272900000000
H         2.61000000000000    5.01258400000000   -0.43808100000000
O         3.28999100000000    3.50110400000000   -1.45617400000000
H         4.19574200000000    3.15099400000000   -1.41313800000000
O         4.71121700000000    2.21521400000000    0.13049700000000
H         4.98819600000000    2.42450700000000    1.04382200000000
O         3.95732100000000    2.32736400000000    2.47890700000000
H         3.61130800000000    3.22313300000000    2.58740800000000
