64
 energy: -146.686266185724 gnorm: 0.000088484615 xtb: 6.4.1 (a3dbbd7)
C         0.20059334378208   -0.05045972359463   -3.53154591976485
C         0.27489321227599    1.36530533504990   -3.26058363289456
C        -1.03984951461265    1.81062173829617   -2.87063868723998
C        -1.15740203102199   -0.47295367259865   -3.31894850317707
C        -1.92260613889670    0.67072016791691   -2.90505568435209
C        -1.40641474423843   -1.71320097972345   -2.73841176874716
C        -0.32107070887088   -2.56879272048867   -2.35949984939669
C         1.25010894877295   -0.88474955192383   -3.15799297213689
C         0.98463175800163   -2.17179619089440   -2.57677632523427
C         2.41213010632874   -0.33126295771543   -2.50990648833253
C         1.39753922973041    1.89790959952048   -2.64533789800263
C         2.49095072160808    1.03659973749500   -2.26922819255566
C         1.25197108078159    2.89982029111586   -1.61670116566473
C        -1.18101380578739    2.77026925727043   -1.87777209034699
C        -0.01452891292623    3.32860988003952   -1.23990890956988
C        -2.20664384882504    2.62621588435340   -0.87497374044389
C        -2.90855708263061    0.52752133993937   -1.93173784936351
C        -3.04789675863150    1.52183480642614   -0.89942780384886
C        -2.42110810569051   -1.85289361259171   -1.73060873793001
C        -3.16416623543183   -0.75957742462858   -1.34561222836908
C        -0.69549060524443   -3.23150893572194   -1.12497546810115
C        -1.93905402204485   -2.80805589902481   -0.74744876358517
C         0.32866643777087   -3.73852511388611   -0.17327918645813
C         1.99057090214041   -2.42390047150709   -1.55790306595511
C         2.87166610174475   -1.26405164026283   -1.52164821066504
C         1.66157005981733   -3.05524151853590   -0.39475480782076
C         3.41224730318278   -0.81722172118710   -0.33829872361149
C         3.01890636261841    1.50142703463958   -1.02153576386739
C         2.25516523543112    2.65418658949393   -0.61485186051874
C         3.45355222550558    0.57834952230075   -0.07129698133634
C         1.96143973518088    2.85419842055581    0.72739688433036
C        -0.32213129272516    3.53387704652405    0.15166371190654
C        -1.67631673675443    3.10224306071843    0.37843424299919
C         0.65114580253889    3.30217119736498    1.11945689183667
C        -2.01477806107851    2.46223640628556    1.56443532181748
C        -3.39015311320157    0.85056393393801    0.32895563690344
C        -3.45773416518133   -0.56070696503130    0.07087480788094
C        -2.89069966192010    1.31842192176962    1.53862175888605
C        -2.43409462775740   -2.81363603986700    0.65939353896336
C        -3.03140049193409   -1.46545232590216    1.01320609754336
C        -0.01316205434961   -3.27355005431467    1.22379868469366
C        -1.25208501455456   -2.87959615331079    1.60356841439178
C         2.14527011782123   -2.56228761708170    0.86167615366771
C         3.27248637831751   -1.58850566655323    0.95810375063981
C         1.16356554020037   -2.68729605552336    1.81153187558320
C         3.14246994376987    0.78314099844538    1.32283721187895
C         2.41807614987374    1.90396565221767    1.71142833407492
C         2.90900294019532   -0.48752887555573    1.93160904349673
C         0.30137525454031    2.63255866675689    2.34535383346584
C        -1.00555801179566    2.21947779973032    2.56421007185739
C         1.39785424312066    1.76774945011947    2.70538009160705
C        -2.42260302059193    0.37697017806798    2.51332810090389
C        -2.47254551575515   -0.99072766074457    2.23606958055082
C        -1.37616622464607   -1.83766773209233    2.60609455431539
C        -1.26288452372310    0.92844826430669    3.14894648014705
C         1.11161580608080   -1.87590422143424    3.05882703149017
C         1.93383345543391   -0.61814061643170    2.88101346792159
C         1.15319224049425    0.51651275042202    3.25986177916493
C        -0.27854447939023   -1.31305005005409    3.24908461106448
C        -0.20472948880593    0.08771040390780    3.48687497788572
Cl        4.80913086649841   -2.43334633631049    1.41193402213717
Cl        1.65137574154328   -2.86061988649447    4.48270362200495
Cl        0.50173642758301   -5.53768470666445   -0.25917640296888
Cl       -3.62038631990516   -4.15584210605270    0.94853048895048
