64
 energy: -146.699654593114 gnorm: 0.000094356447 xtb: 6.4.1 (a3dbbd7)
C         0.19524109216848   -0.05550532677383   -3.51604705803943
C         0.26526986540663    1.35818928828573   -3.25244331919357
C        -1.04847153370033    1.80621901070714   -2.86464790815442
C        -1.15623179658521   -0.48098192776840   -3.29294819393998
C        -1.93028118076875    0.66817459776403   -2.89050561246381
C        -1.39162513874197   -1.71835705498675   -2.70787270967605
C        -0.29386348945316   -2.57216452738642   -2.35689069342750
C         1.25201411863838   -0.89141963741611   -3.15303672347171
C         1.00505432135351   -2.17657083977840   -2.59831916146696
C         2.41879790598179   -0.33484495814670   -2.51120626795540
C         1.39020769817719    1.89423408534462   -2.64183129159511
C         2.48462247755483    1.03292664786264   -2.26889709425200
C         1.24510689876320    2.89639535387246   -1.61737637710862
C        -1.18936583065556    2.77305305607412   -1.87600427860141
C        -0.02134455349921    3.32839656777149   -1.24059291651577
C        -2.21697827594977    2.63488068247404   -0.87622841524276
C        -2.92032301221921    0.53505638208701   -1.92728312698173
C        -3.06635871384959    1.53490193877947   -0.90142335258033
C        -2.42247909327379   -1.85695305562317   -1.70494661005127
C        -3.17557304329717   -0.75249026718722   -1.32834740660255
C        -0.65034170950936   -3.24420650649007   -1.11600101014363
C        -1.97777211687416   -2.79855687743852   -0.71861198857362
C         0.30530882013082   -3.44115080562258   -0.16093586948339
C         2.16903789812274   -2.58677087583785   -1.71420302126057
C         2.91107225264669   -1.27400240164216   -1.55444077279963
C         1.67095531853036   -3.01471621543499   -0.37975376639355
C         3.41048556602975   -0.83151845020782   -0.35881041237282
C         3.01087060401513    1.49688244873029   -1.02223368771544
C         2.25046778715099    2.65195624737398   -0.61515931513854
C         3.43722604877861    0.56758747266523   -0.07894811365463
C         1.95521744088585    2.84694283402464    0.72568178159930
C        -0.32777116599742    3.53311582316660    0.15217605155772
C        -1.68469452005912    3.10474125313085    0.37769176750855
C         0.64378176929542    3.29652814522350    1.11809786018813
C        -2.02154840327281    2.45717022281715    1.56076603997427
C        -3.41278939507700    0.86365884031788    0.32595202408907
C        -3.47912352102198   -0.54954206584312    0.05872918552422
C        -2.90165459197901    1.31718097989732    1.53373812985249
C        -2.29438025876987   -2.62017306833185    0.61174680709027
C        -3.02420146735799   -1.46637033387110    1.00728392745554
C         0.00566686011949   -3.23874590387091    1.24046168350026
C        -1.38359820496339   -3.06439005797354    1.74217093000702
C         2.14945609722544   -2.55166796280641    0.81281072440943
C         3.28236535132151   -1.59997423652643    0.94426398954829
C         1.11478212033823   -2.69078906005224    1.81944315104260
C         3.12444844328594    0.76665136071861    1.31258123697520
C         2.40649608911009    1.89108781779869    1.70532183767152
C         2.89198664060853   -0.50573346391256    1.91710026734370
C         0.29304840125774    2.62345557191806    2.34281716260831
C        -1.01358233134013    2.21308157276105    2.56044926877832
C         1.38601708637939    1.75387959389586    2.69815386203318
C        -2.43411290936121    0.37159303534243    2.51656933066704
C        -2.48570503518281   -0.99426230874865    2.26038186501497
C        -1.41836122194776   -1.85607125465332    2.65763565235162
C        -1.27235034611207    0.92098847810059    3.14494941561634
C         1.09431225081844   -1.89418286679027    3.07302900564246
C         1.91508679136386   -0.63708485354182    2.86752549961619
C         1.13802550385856    0.49956672363145    3.24520945190741
C        -0.30377761940501   -1.33090804105372    3.25480330360010
C        -0.21857184320909    0.07605623273843    3.47782044556599
Cl        4.81571749409975   -2.42747202751306    1.41495190235625
Cl        1.64607579191830   -2.85364029888675    4.49862441965605
Cl        3.18201718333782   -3.85275358374945   -2.51673373201574
Cl       -2.02354807394199   -4.55259153915781    2.54780121488888
