156
 energy: -347.971503415396 gnorm: 0.000132966745 xtb: 6.4.1 (a3dbbd7)
C         3.86377587488715    0.28269096615161   -0.80433560676708
C         3.41857416224698   -1.24851458953087   -0.91961154116696
C         3.22694962208972   -1.78679807192397    0.53543328477690
C         3.60605609694897    0.59549851295273    0.72141791783482
C         2.74996489714808   -0.53899477034336    1.21796189842600
C         3.21541345183564    2.03114994255806    1.13965792215679
C         2.45033103632949    2.90051293573715    0.09348538252020
C         3.26968754245605    1.26051190825949   -1.93051473750568
C         2.61373073858110    2.64870760861761   -1.44095461386877
C         2.19128120646337    0.69268288560372   -2.95551529027777
C         2.11951462516312   -1.37792486272058   -1.60203390039100
C         2.01180782801329   -0.81316776971970   -2.98199180647938
C         1.56251430147180   -2.75168773866713   -1.68786965957887
C         2.30178873477578   -3.04272305248525    0.80379256871733
C         1.37653491806016   -3.55249974027791   -0.38218611725107
C         1.28613386685514   -2.82645370667735    2.01806124530569
C         2.55727954030474   -0.60003335131527    2.69021751191824
C         1.56890479826578   -1.76572836901094    3.11976273838252
C         2.30825765762010    2.08269671995923    2.48983176179711
C         1.90134024832593    0.72608223986107    3.18320446012032
C         1.04950042621590    2.87045291827736    0.59574630091141
C         1.04917698499275    2.97373541162229    2.07842695178071
C        -0.00677914249433    3.12119051207194   -0.12972239305440
C         1.23870149555163    2.77669649371090   -2.25880821484198
C         0.92064422904933    1.38739028318520   -2.64267929086690
C         0.04395131155035    3.45641886406639   -1.58129749903518
C        -0.26488804087335    0.97272462127514   -3.02267136750864
C         0.64459100348373   -1.38593530117287   -3.57099628207374
C         0.34598439466835   -2.63765687637771   -2.64082394894619
C        -0.52634845004588   -0.33331994877805   -3.73006398701554
C        -1.06509208558773   -2.55962925233645   -2.02428181249451
C        -0.06692016085876   -3.58918792080922    0.19813639195621
C        -0.05384796214717   -2.64907193355759    1.35357487736474
C        -1.25008320629298   -3.47097092969928   -0.79085660928757
C        -1.26834542013608   -2.72526903443914    2.21090922552840
C         0.24103952940910   -1.02920224985540    3.60286094329856
C         0.44708738737102    0.35913112254635    3.07323084342252
C        -1.19068559166874   -1.63312048968790    3.33588975515254
C        -0.33520548961773    2.66126811510165    2.68033775910162
C        -0.52792855188598    1.20341648035756    2.85183992955801
C        -1.33652803527633    3.50502239704091    0.40872023355860
C        -1.64522060644626    3.10398279503321    1.87841465755003
C        -1.43729322780259    3.08731955584890   -2.06838487757505
C        -1.51495907286679    1.81132910569270   -3.01084687843926
C        -2.29130858866101    3.05172293683786   -0.73061293179216
C        -1.98384742354995   -0.64137611266628   -3.24064422806148
C        -1.93277223206484   -1.25902698289586   -1.84012168830662
C        -2.60304410491642    0.70764013677543   -2.79261060121637
C        -2.59653824502910   -2.96978003719206   -0.12519593811643
C        -2.52417714722579   -2.41422220316009    1.34282158080141
C        -3.16201996771404   -1.89561604102395   -1.14227245873741
C        -2.28723328916158   -0.58444690947522    2.87507316312957
C        -1.96234862270063    0.90049182556768    3.06542917718495
C        -2.73220397931937    1.93233499522098    2.14985987267951
C        -2.56824403452365   -0.92726838029683    1.45560712042416
C        -3.02691884958529    1.69673324649622   -0.56963460311652
C        -2.66784129361440    0.33995220645237   -1.30536143016930
C        -3.75400852273610   -0.55466259759458   -0.68203205562045
C        -3.52023391768525    1.36524088970027    0.88424889810935
C        -3.69388135925131   -0.20306743893145    0.82601676800903
O         5.25672715196249    0.28201002380747   -0.94531888656748
H         5.44702842384806    0.73236137931966   -1.79622442456166
O         4.39808756824474    2.74991177590344    1.39225772331883
H         5.09386793962753    2.08401807943755    1.56021753747273
O         3.79770027328598   -0.80292775031935    3.30867623712594
H         3.62463881597012   -1.32344877132053    4.11425507390434
O         4.43658408433176   -1.97566917936479   -1.56267563210170
H         5.26727106119617   -1.50053043625728   -1.35792432112710
O         2.18779718248486    0.83006516900077    4.56481067294018
H         2.71225564095343    1.64452084184610    4.68029452938253
O         3.03873725242810    2.80261252064141    3.44031821688809
H         3.81965774090884    3.16589270643149    2.97016596509654
O         4.52351063056366   -2.10829880081731    1.01261963878038
H         4.48579974761057   -3.00096398665797    1.40349074054306
O         2.82738488562616    4.24791953687569    0.33820859688516
H         3.66077359711713    4.41990634408881   -0.12625649077987
O         3.45409761140842    3.67195107288978   -1.92001176556634
H         2.90858780324827    4.16754165224320   -2.57599659128342
O         4.37654344949801    1.58996241551916   -2.73500835589912
H         4.46900822122142    2.56746395469323   -2.68947501242064
O         3.16032557497258   -4.08770600606219    1.17394257860206
H         2.94858510434010   -4.85627389830163    0.61455365539796
O         1.77082079476582   -4.87561870215008   -0.65575678488635
H         1.15398434902443   -5.24384100884774   -1.30336315751321
O        -0.16377022863328   -4.92156581365400    0.73440101879086
H        -0.96340756743173   -4.97788330446690    1.28275998105910
O        -1.42642169397911   -4.76554302884920   -1.31620009556932
H        -2.22136651785050   -5.13979472434752   -0.89371488470765
O        -3.45153906195818   -4.08334008116988   -0.07897561795236
H        -4.21665881878267   -3.89961700036236   -0.64809527456697
O        -4.93632268926280   -0.58113139232626    1.37293246526072
H        -4.78133591348165   -0.89300703594535    2.28379669581402
O        -3.29802005000808    4.03331492734461   -0.74111314030551
H        -3.33827885403224    4.40059174686315   -1.63766369791746
O        -3.76130335991136    0.98828647432378   -3.50877468399445
H        -3.92168429551518    0.20047672224827   -4.06907392518323
O        -4.09559887052221   -2.57229914162832   -1.95466904431678
H        -4.80124837086778   -1.93104759537956   -2.16504265468833
O        -5.08438529750494   -0.42494872344499   -1.13076782386526
H        -5.63509689438724   -0.49265502502400   -0.32335131266426
O        -1.93552615237259    4.17419818139912   -2.79047129467444
H        -1.49017461761326    4.17517699329738   -3.65193548453161
O        -1.68185725342939    2.29395454222287   -4.32368253146821
H        -2.63344141938642    2.22354094446846   -4.52015896895851
O        -4.82852862459758    1.88684142119157    0.98602543528394
H        -4.90429035151957    2.60622153995901    0.32998284662649
O        -3.68766421952415    2.50174723288894    3.00188608661593
H        -4.53806715010925    2.51247111842783    2.51814867439797
O         0.91713118076679   -1.86228919013558   -4.85641942719701
H         0.92589630078045   -2.84148143584975   -4.78676164899660
O         0.42137727016997   -3.80651887343253   -3.42217219473107
H        -0.48792062020918   -4.12584443359290   -3.56414719483984
O        -1.29082832484429    4.92079098554316    0.35380815395356
H        -1.97022804868129    5.25015311684058    0.96639494531115
O        -2.16006862815267    4.24905014653236    2.48858614620168
H        -1.83026646695417    4.23451072365591    3.40898246393284
O         2.15566604244199   -2.37382311451386    4.23153932269904
H         1.97260179605198   -3.32637420051950    4.17329640090220
O        -1.44812780340273   -3.99661157432394    2.80941412082241
H        -1.48392042271792   -3.83002370287070    3.77546641286857
O        -2.76483739448719   -1.22355115503949   -4.23831269448183
H        -2.26739936346588   -1.07544376149420   -5.06666441978475
O         3.07649168525399   -1.25806089288078   -3.79596182749858
H         3.10335799936391   -2.23018157690719   -3.74480463497815
O         2.53359834648538    1.13576957365761   -4.25213483715162
H         3.16715440348797    0.48758306197771   -4.60387427322936
O        -2.23598684173530    1.16929837705627    4.42752156840607
H        -2.75065576812806    1.99386488002333    4.46119895785309
O        -3.66913342566368   -2.90773053255697    2.00551958786121
H        -3.38118616014172   -3.65188493962953    2.56088021386088
O        -1.63196997518705   -2.25444867737908    4.50900524242146
H        -1.15655431587224   -1.82380027545306    5.24339765599276
O         4.85361651161107    0.43137008242070    1.38130317027031
H         5.09561753767278   -0.51419427155041    1.39160232790691
O         0.30009475364915   -0.93811138079510    5.01144443308374
H         1.03276173103131   -0.33792490136965    5.24004742970536
O        -0.69569747540387   -0.07339535328219   -5.10720802655105
H         0.11773134765054   -0.33888556939454   -5.56328641298826
O         1.51802519906892    3.51295928335821   -3.43096171022803
H         1.86275750287121    2.89256986034847   -4.09921059100364
O        -0.40691599024474    3.26331541056380    3.95611863388915
H         0.29983279054818    3.93167910077948    3.97888938561958
O         0.26538791839064    4.82634529096397   -1.75364143791488
H        -0.34456798982969    5.30133703765590   -1.16316126782637
O         1.29633787169643    4.30629350912573    2.46838840579213
H         1.94526776840508    4.68521136225304    1.85132588447674
O        -3.46721967835955   -0.83890258524445    3.61616793474142
H        -3.37903825828333   -0.29674779153900    4.42541959069294
O         1.26599794855965   -4.04490755239900    2.74806616802081
H         0.94528434074793   -4.74557752862339    2.14706811599623
O        -1.81092506034832   -3.16464919595672   -3.07190403405994
H        -2.76178097841590   -3.20879204136398   -2.86673735363138
O         2.51867820894473   -3.48616392752851   -2.46648950571988
H         3.38085460245698   -3.44139658360890   -2.01688843969941
O        -4.18245020148363    2.02203592205991   -1.31829236975026
H        -4.77201178644727    1.25553741382352   -1.44629865505091
