62
 energy: -137.552600493167 gnorm: 0.000106397859 xtb: 6.4.1 (a3dbbd7)
C         0.20952820608861   -0.06537388037868   -3.49973611856823
C         0.27601569997321    1.34766307337025   -3.24082797426560
C        -1.03837126859295    1.79112352559886   -2.85190720442395
C        -1.16095710309640   -0.49576603196858   -3.27717883047253
C        -1.92655524802696    0.65429238938983   -2.88012193991601
C        -1.41706004770117   -1.72872608856263   -2.71169883124937
C        -0.32094908783178   -2.59992407907285   -2.31852277259265
C         1.26155687459916   -0.88950264297661   -3.14415584854479
C         1.01830560050510   -2.19127110100892   -2.55356391551379
C         2.42922611452893   -0.32845563718414   -2.51885851911621
C         1.40383015815554    1.89486223348234   -2.63826048956581
C         2.49940335785933    1.03836872377468   -2.26951577726096
C         1.25367557530233    2.89419234647609   -1.60987263362497
C        -1.18078338902137    2.75663166856247   -1.86535340804386
C        -0.01332101178228    3.31605836381752   -1.23127116549937
C        -2.21093293658430    2.61848956012211   -0.86579089159038
C        -2.92490774747711    0.52653122632628   -1.92182837269013
C        -3.06491527364127    1.52569062290043   -0.89244889293690
C        -2.45280262782012   -1.86679061008743   -1.72523579673376
C        -3.19242272830599   -0.75993578565629   -1.33243450727722
C        -0.68075664655936   -3.25812544733668   -1.14605244761014
C        -1.98232684270341   -2.81288957538154   -0.74139080766532
C         0.32873353094117   -3.73736902620564   -0.16283424471904
C         2.00612694261445   -2.43135256871599   -1.58190435041160
C         2.88676534525326   -1.26683265043016   -1.53304193414151
C         1.67423905749718   -3.06511762330553   -0.37022285536010
C         3.41491138884479   -0.82303422292350   -0.34700692627085
C         3.02607415210146    1.50098068930719   -1.01718069571111
C         2.26082614603619    2.65356949292202   -0.60643723671773
C         3.45975100720486    0.57755985283104   -0.07049145028567
C         1.96504230323707    2.84491508573234    0.73379873061251
C        -0.32112611343420    3.52023294542518    0.16259433089928
C        -1.67636543717291    3.08901956850161    0.38839251505738
C         0.65033535708308    3.29100272183912    1.12840177497722
C        -2.01055492703606    2.44177537086832    1.57015830507957
C        -3.41546410798049    0.85145474015228    0.33423389241783
C        -3.49410369061100   -0.55774349180770    0.06218135624228
C        -2.89566845270079    1.29885650183856    1.54347035873108
C        -2.29146865697904   -2.62831729011771    0.59700465727000
C        -3.04010374047250   -1.47686120811125    1.00651606781511
C        -0.01327266910793   -3.30220949913532    1.24282669131776
C        -1.26373391272166   -2.86617079220352    1.60525206215808
C         2.16063120393664   -2.59517024897886    0.83411313130777
C         3.26068994735425   -1.59579456287899    0.94404670072448
C         1.14343813474299   -2.71896473932828    1.84418534977012
C         3.14821984210542    0.77588314237145    1.32307372678983
C         2.42233349412894    1.89651642836764    1.71898148832246
C         2.90940284567003   -0.49676720953163    1.92285721297115
C         0.30299696000760    2.62160051599411    2.35447040200804
C        -1.00494213379038    2.20190241057607    2.56853348296421
C         1.40050809093275    1.76133826165655    2.71658117612189
C        -2.43410928620359    0.35655142085618    2.52297873880729
C        -2.49734988033204   -1.00877466749074    2.25975839410977
C        -1.41071168208185   -1.86775766009127    2.62974324716290
C        -1.26289397139800    0.91040094487146    3.15750070518528
C         1.02187621442774   -1.78039341299430    2.86027314249566
C         1.91629406402874   -0.62940695060310    2.86319162140888
C         1.15093059825194    0.51377682326774    3.27586640010750
C        -0.27637527859710   -1.33317338801092    3.24367169989698
C        -0.20645907848692    0.08384910742314    3.50631078844891
Cl        4.82153736011813   -2.42317490698272    1.40338606761999
Cl        0.50177186680503   -5.54897918155941   -0.25945905123613
