62
 energy: -137.578032773714 gnorm: 0.000215530721 xtb: 6.4.1 (a3dbbd7)
C         0.19812275058759   -0.06930125415077   -3.51836758668566
C         0.26945693893557    1.34652161504494   -3.25132300237296
C        -1.04345000967940    1.79169611457206   -2.86112044788562
C        -1.16138799187300   -0.49699406109661   -3.29923556020141
C        -1.92691611301906    0.65444903403119   -2.88945256421484
C        -1.41745117763402   -1.73903745839701   -2.73692216736134
C        -0.32429398190135   -2.60471081165145   -2.37194238372853
C         1.25118985265576   -0.89732477621862   -3.15846735829905
C         0.98889263287718   -2.18893079482075   -2.57549040971465
C         2.41646904220832   -0.34224118641003   -2.51619305135714
C         1.39465948697119    1.88372459231909   -2.64245881641084
C         2.48968793303268    1.02476569755751   -2.27059167960694
C         1.24903286270561    2.88646447924908   -1.61505245365265
C        -1.18459849909973    2.75856822976121   -1.87293231922835
C        -0.01708585609784    3.31568024312497   -1.23832037242426
C        -2.21215171592938    2.62024976618294   -0.87327210070928
C        -2.91721494019514    0.52115524730504   -1.92607066178218
C        -3.06092650304449    1.52014060970261   -0.89843834827162
C        -2.44739180711675   -1.87768895924400   -1.73501157081330
C        -3.17912800285254   -0.76858362305878   -1.33634794943600
C        -0.67914285843941   -3.27731995271176   -1.15093376304530
C        -1.98708635442801   -2.82852463973860   -0.75441993649189
C         0.29328841319265   -3.49755648279094   -0.18188295413895
C         1.98895269972203   -2.43333537447082   -1.57306758116927
C         2.87993772136840   -1.27818784334961   -1.53177223196033
C         1.64370809333873   -3.05888175369942   -0.39514202339181
C         3.40819677508857   -0.83525148600863   -0.34185640944960
C         3.01659862912825    1.48731811339167   -1.02061503266446
C         2.25337077729700    2.64111894926851   -0.61317616975485
C         3.44794366035969    0.56268937966141   -0.07145123039015
C         1.95878790729724    2.83825345336139    0.72808482176115
C        -0.32399451887312    3.52168604529079    0.15481364575396
C        -1.68107313152258    3.09171057699269    0.38046430978817
C         0.64676262950588    3.28742329388391    1.12025665562869
C        -2.01825370519526    2.44670231961581    1.56345675779731
C        -3.41012123131466    0.85126511543174    0.32828100372795
C        -3.47938531466873   -0.56428314154930    0.05913774214426
C        -2.90103806383280    1.30555383482385    1.53651884818508
C        -2.26940770302697   -2.62749166169109    0.59417458218849
C        -3.02852630429493   -1.47336374088446    1.00487786895743
C        -0.00246093823980   -3.28033667066890    1.20622578507862
C        -1.26105287521209   -2.87067200885175    1.58850327446247
C         2.15900927166386   -2.58644676753699    0.87750539627751
C         3.27819932234079   -1.60588700485734    0.95885502484534
C         1.18397248463631   -2.71767453219056    1.82599410689301
C         3.13654105934764    0.76542093957771    1.32136643945637
C         2.41279712501861    1.88685376504548    1.71093793536111
C         2.90512924948754   -0.50536468132155    1.93157459601763
C         0.29619704121644    2.61451420276559    2.34551317259454
C        -1.01051999454226    2.20185170802228    2.56204013243219
C         1.39181597671554    1.74946888197090    2.70416537064585
C        -2.43489388783387    0.36197252302294    2.52013403952122
C        -2.48951477048997   -1.00252861851636    2.25640616607569
C        -1.39456589260119   -1.85340446926991    2.62639931608446
C        -1.26974423037779    0.91044771291163    3.14926412464673
C         1.10982005058864   -1.89750679947139    3.06778935294144
C         1.92912050645228   -0.63671654152296    2.88062191361307
C         1.14651280346603    0.49762157970314    3.25710521730595
C        -0.28625920745548   -1.33240078828397    3.25187783222206
C        -0.21076795648625    0.07032820423188    3.48771918995169
Cl        4.83751221347078   -2.41396668160897    1.40668294534809
Cl        1.63581080341932   -2.84466818507108    4.52101708373686
