120
 energy: -265.951499984464 gnorm: 0.000346625701 xtb: 6.4.1 (a3dbbd7)
C         3.46187600000000   -1.35570400000000    0.45087600000000
C         2.80909500000000   -1.59631500000000    1.86772200000000
C         2.71946600000000   -0.17230500000000    2.52615900000000
C         3.32557000000000    0.13716300000000    0.25002800000000
C         2.89991100000000    0.75958600000000    1.33061300000000
C         3.69861800000000    0.79213300000000   -1.03861900000000
C         3.15149700000000   -0.07313600000000   -2.24592100000000
C         2.66199800000000   -1.97986500000000   -0.65232700000000
C         2.53057800000000   -1.38485400000000   -1.83498300000000
C         1.84867000000000   -3.27242700000000   -0.57068600000000
C         1.45763800000000   -2.20599400000000    1.70044500000000
C         1.20765900000000   -3.42840800000000    0.83652100000000
C         0.37243200000000   -1.86033400000000    2.39282700000000
C         1.42768900000000    0.18631800000000    3.39028500000000
C         0.28281100000000   -0.90101200000000    3.51739100000000
C         0.68626700000000    1.30203600000000    2.72531200000000
C         2.65044800000000    2.23621800000000    1.44791300000000
C         1.21960800000000    2.24472100000000    1.88520100000000
C         3.06063200000000    2.23791300000000   -1.20955800000000
C         2.64933600000000    3.06066600000000    0.08926200000000
C         1.97059300000000    0.71946500000000   -2.72285300000000
C         1.87431500000000    1.97115400000000   -2.08359000000000
C         0.90509300000000    0.15477100000000   -3.35392100000000
C         1.58277600000000   -2.18412900000000   -2.74489100000000
C         0.85737300000000   -2.94601400000000   -1.65613200000000
C         0.69065800000000   -1.29963700000000   -3.69374400000000
C        -0.45510300000000   -2.99610200000000   -1.50740400000000
C        -0.37734700000000   -3.63259800000000    0.93474700000000
C        -0.78586100000000   -2.47850600000000    1.80849600000000
C        -1.20720700000000   -3.65297600000000   -0.38529200000000
C        -1.98128900000000   -1.92337500000000    1.87472600000000
C        -1.09891600000000   -0.09889900000000    3.50051300000000
C        -0.68668900000000    1.15417300000000    2.79570900000000
C        -2.30482000000000   -0.72243800000000    2.72098600000000
C        -1.49973000000000    1.93879200000000    2.01448200000000
C         0.40552500000000    3.01101700000000    1.07718600000000
C         1.17416200000000    3.78826500000000    0.06412500000000
C        -0.95649700000000    2.85720900000000    1.14205600000000
C         0.71890600000000    2.68554700000000   -2.12312300000000
C         0.33038000000000    3.84084200000000   -1.25740500000000
C        -0.31631200000000    0.84076500000000   -3.31679600000000
C        -0.40992400000000    2.07775400000000   -2.69336300000000
C        -0.89165700000000   -1.46261300000000   -3.52338400000000
C        -1.33069500000000   -2.15453100000000   -2.26342500000000
C        -1.39562000000000   -0.04933300000000   -3.30289800000000
C        -2.62386900000000   -2.86752300000000   -0.40898400000000
C        -3.07254300000000   -2.08470600000000    0.85550100000000
C        -2.45095100000000   -1.90193300000000   -1.57163100000000
C        -2.90430600000000    0.15282900000000    1.60819600000000
C        -2.94290900000000    1.64351800000000    1.72148900000000
C        -3.30036300000000   -0.58305400000000    0.57789400000000
C        -1.97356800000000    3.45741000000000    0.23533100000000
C        -1.32257100000000    3.67127000000000   -1.16508400000000
C        -1.57458000000000    2.45330400000000   -2.01016300000000
C        -3.26552800000000    2.44800700000000    0.39328800000000
C        -2.48229900000000    0.28027900000000   -2.53886700000000
C        -3.38553300000000   -0.75647100000000   -1.92131800000000
C        -3.95816900000000   -0.01843200000000   -0.63398400000000
C        -2.56152100000000    1.52102700000000   -1.87661800000000
C        -3.65538900000000    1.54782400000000   -0.85125900000000
O         4.80645000000000   -1.75374700000000    0.42119200000000
H         4.93736300000000   -2.37941700000000    1.15334000000000
O         5.09283500000000    0.94397300000000   -1.10859200000000
H         5.48538300000000    0.06385500000000   -1.18326800000000
O         3.53822000000000    2.77556000000000    2.39184700000000
H         4.01409200000000    3.50417200000000    1.96143100000000
O         3.61879700000000   -2.47191400000000    2.62200700000000
H         4.10282600000000   -1.91054900000000    3.25465700000000
O         3.59427900000000    4.08240500000000    0.24446900000000
H         4.06900900000000    4.12558900000000   -0.62036200000000
O         3.98965200000000    3.03572400000000   -1.91624500000000
H         4.79799700000000    2.49933700000000   -2.01782200000000
O         3.85157900000000   -0.07683700000000    3.35601900000000
H         3.84153600000000    0.80819600000000    3.75192500000000
O         4.18485500000000   -0.24938100000000   -3.17801400000000
H         3.83013500000000   -0.74916500000000   -3.92555300000000
O         1.84430300000000    0.55907600000000    4.67110900000000
H         1.79032200000000   -0.23493800000000    5.23077900000000
O         0.41475000000000   -1.59560000000000    4.72338000000000
H        -0.21148500000000   -1.16008500000000    5.33942100000000
O        -1.45622100000000    0.12014600000000    4.84258800000000
H        -2.32778200000000   -0.29158700000000    4.97740900000000
O        -3.30951300000000   -1.03935200000000    3.67045600000000
H        -3.95061700000000   -1.61820100000000    3.22726300000000
O        -3.64441400000000   -3.78254400000000   -0.70830200000000
H        -3.20219400000000   -4.58704600000000   -1.04274000000000
O        -1.45243900000000   -4.98550000000000   -0.74963000000000
H        -1.38098100000000   -5.50865500000000    0.07306300000000
O        -0.66115500000000   -4.83858300000000    1.60562300000000
H         0.17591100000000   -5.16860700000000    1.97585100000000
O         2.64482400000000   -4.38067600000000   -0.91589600000000
H         2.63381300000000   -4.99929800000000   -0.16686200000000
O         1.82823200000000   -4.53356300000000    1.48772500000000
H         2.51923900000000   -4.18554900000000    2.07372600000000
O        -4.21193200000000   -2.64570200000000    1.45308100000000
H        -4.65823900000000   -3.17480300000000    0.77067700000000
O         2.30810800000000   -3.06606000000000   -3.56896500000000
H         2.72316400000000   -3.72866800000000   -2.99760100000000
O         1.06044000000000   -1.49375700000000   -5.02056300000000
H         0.71594900000000   -2.34730600000000   -5.31401600000000
O        -1.38463500000000   -2.13407600000000   -4.65093200000000
H        -2.34928600000000   -2.11056100000000   -4.61540800000000
O        -4.41856200000000   -1.17983000000000   -2.76098800000000
H        -5.21818000000000   -1.23665400000000   -2.20568100000000
O        -5.33591500000000   -0.22655800000000   -0.55902800000000
H        -5.73609500000000    0.58119200000000   -0.94815300000000
O        -3.83875800000000    2.08011500000000    2.71151200000000
H        -3.69922400000000    1.55243900000000    3.50691100000000
O        -4.38291500000000    3.24949500000000    0.62129900000000
H        -4.10065600000000    3.96773300000000    1.21398100000000
O        -4.82518200000000    2.06116800000000   -1.44413500000000
H        -5.11820700000000    2.80889200000000   -0.89114900000000
O        -1.90049400000000    4.82196900000000   -1.71634700000000
H        -1.18687100000000    5.27689600000000   -2.20764800000000
O         0.57884400000000    5.05469600000000   -1.90541900000000
H         0.85631800000000    5.67608000000000   -1.20069000000000
O         1.34682600000000    5.12321800000000    0.47370900000000
H         2.29738000000000    5.24427300000000    0.66051200000000
O        -2.37016100000000    4.69985200000000    0.74821600000000
H        -2.49508400000000    5.28256800000000   -0.02570800000000
