120
 energy: -265.952681704178 gnorm: 0.000290012218 xtb: 6.4.1 (a3dbbd7)
C        -0.12317600000000   -3.69483900000000   -0.17203200000000
C         0.72020100000000   -3.40555100000000   -1.48136000000000
C        -0.32968200000000   -2.88726800000000   -2.54002800000000
C        -1.35861600000000   -2.87378800000000   -0.40195500000000
C        -1.48435900000000   -2.44432900000000   -1.64988800000000
C        -2.39617000000000   -2.58439700000000    0.63942000000000
C        -1.79891700000000   -2.38562200000000    2.08184300000000
C         0.51799200000000   -3.32369300000000    1.20176500000000
C        -0.30943800000000   -2.32020200000000    2.00779300000000
C         1.80275800000000   -2.54168500000000    1.15829600000000
C         1.79929800000000   -2.40952500000000   -1.24121600000000
C         2.41325200000000   -2.20431200000000    0.03982100000000
C         2.26606700000000   -1.50397100000000   -2.09781600000000
C         0.15517400000000   -1.75820100000000   -3.55407700000000
C         1.63661900000000   -1.18050900000000   -3.40491200000000
C        -0.70959500000000   -0.53089500000000   -3.34916000000000
C        -2.63707500000000   -1.63030500000000   -2.18187100000000
C        -1.94265200000000   -0.44529100000000   -2.77041700000000
C        -2.95466900000000   -1.23151500000000    0.29857700000000
C        -3.54579200000000   -0.98410500000000   -1.04056100000000
C        -2.42687100000000   -1.04315200000000    2.60475400000000
C        -2.95790800000000   -0.40218100000000    1.32210700000000
C        -1.48577500000000   -0.06932900000000    3.43527400000000
C         0.48512400000000   -1.51652500000000    2.71017400000000
C         1.97110700000000   -1.85613000000000    2.47888000000000
C         0.03013700000000   -0.49224300000000    3.69653800000000
C         2.89059000000000   -0.60543500000000    2.42650200000000
C         3.63800300000000   -1.34370600000000   -0.08753400000000
C         3.51772900000000   -0.78404700000000   -1.59070800000000
C         3.73033600000000   -0.31076300000000    1.07520900000000
C         3.49169400000000    0.77445800000000   -1.81120300000000
C         1.43979800000000    0.32372400000000   -3.27900100000000
C         0.07232700000000    0.63067700000000   -3.37809300000000
C         2.22424700000000    1.17111700000000   -2.55289200000000
C        -0.42785400000000    1.82781600000000   -2.88167100000000
C        -2.44276700000000    0.76480200000000   -2.25071900000000
C        -3.64939700000000    0.55290800000000   -1.38693200000000
C        -1.72659300000000    1.91310600000000   -2.36130300000000
C        -3.42684400000000    1.02131500000000    1.27006400000000
C        -3.71533100000000    1.60306500000000   -0.18650200000000
C        -1.32522600000000    1.20929500000000    2.66752000000000
C        -2.18009900000000    1.72101400000000    1.71766800000000
C         0.88957400000000    0.81781100000000    3.51456000000000
C         2.05439200000000    0.65095400000000    2.56986600000000
C        -0.04948000000000    1.72358200000000    2.76467500000000
C         3.21289300000000    1.04104200000000    0.65648000000000
C         3.21705700000000    1.57204200000000   -0.55424400000000
C         2.40730000000000    1.60256100000000    1.69259700000000
C         1.70457800000000    2.38855500000000   -2.03112800000000
C         0.41335000000000    2.75179300000000   -2.24305900000000
C         2.59464100000000    2.91841100000000   -0.93295100000000
C        -1.93322000000000    3.19132400000000   -1.61314300000000
C        -2.72438000000000    2.90430500000000   -0.28911700000000
C        -1.75357000000000    2.67961400000000    0.82165400000000
C        -0.39047900000000    3.79006800000000   -1.51023500000000
C         0.36297600000000    2.70672800000000    1.89470500000000
C         1.80732200000000    2.98141600000000    1.61253600000000
C         1.80681700000000    3.70811400000000    0.17976900000000
C        -0.47600800000000    3.17669600000000    0.90799500000000
C         0.22345300000000    4.03543600000000   -0.09222400000000
O        -0.46785700000000   -5.05708800000000   -0.14743700000000
H         0.22405000000000   -5.51645400000000   -0.66177100000000
O        -3.41963500000000   -3.55064500000000    0.63324900000000
H        -3.22361900000000   -4.15491300000000    1.37184400000000
O        -3.40506100000000   -2.32739600000000   -3.11804100000000
H        -3.65650600000000   -3.18142400000000   -2.74477900000000
O         1.30286800000000   -4.59711000000000   -1.93242000000000
H         0.73939400000000   -4.89730000000000   -2.67642900000000
O        -2.16844800000000   -3.46915800000000    2.89022600000000
H        -2.88018400000000   -3.13847500000000    3.47074800000000
O        -0.72983800000000   -4.01115500000000   -3.28364400000000
H        -0.80529600000000   -3.71220400000000   -4.21244000000000
O        -0.00337400000000   -2.26030500000000   -4.85688000000000
H         0.87000000000000   -2.24356400000000   -5.28310500000000
O        -3.51530600000000   -1.41490200000000    3.40922100000000
H        -3.67914200000000   -0.67300600000000    4.01861900000000
O         0.74136900000000   -4.47711200000000    1.97973800000000
H         0.08339500000000   -5.13691300000000    1.69912200000000
O        -4.84170300000000   -1.54007600000000   -1.08221300000000
H        -4.83047800000000   -2.35252500000000   -0.55500700000000
O        -4.51476600000000    1.20533900000000    2.13161600000000
H        -5.25221400000000    1.55408300000000    1.60605600000000
O        -2.08827200000000    0.16932100000000    4.67693400000000
H        -1.57748200000000   -0.34650100000000    5.33162000000000
O         0.14660900000000   -0.99435300000000    4.99980700000000
H         0.71497900000000   -0.37625500000000    5.49131600000000
O         2.40359400000000   -1.60647600000000   -4.50568200000000
H         3.33680200000000   -1.55173100000000   -4.25853400000000
O        -5.02510300000000    2.10074100000000   -0.15559600000000
H        -5.42496600000000    1.83666400000000   -1.01756200000000
O        -4.81589600000000    0.74756900000000   -2.16469300000000
H        -5.27970700000000   -0.10524800000000   -2.20780600000000
O         4.65846200000000    1.22388400000000   -2.44941900000000
H         5.15526900000000    0.43627800000000   -2.73080300000000
O         4.60027700000000   -1.28073600000000   -2.34978000000000
H         5.05426100000000   -1.92416400000000   -1.76306700000000
O         5.09169600000000   -0.20443200000000    1.41169500000000
H         5.12838700000000   -0.18929100000000    2.38980900000000
O         4.76611300000000   -2.18007600000000   -0.03845800000000
H         5.42358200000000   -1.69800200000000    0.50797200000000
O         2.44603300000000   -2.71802800000000    3.48630400000000
H         1.95912600000000   -3.55256400000000    3.39903400000000
O         3.81231900000000   -0.65096100000000    3.48855600000000
H         3.70306900000000   -1.51262400000000    3.92765100000000
O        -0.37101700000000    5.01874300000000   -2.18476300000000
H        -1.19880700000000    5.05577800000000   -2.70737800000000
O        -2.67098800000000    4.09225200000000   -2.39013200000000
H        -3.23754000000000    4.58083000000000   -1.75647200000000
O        -3.49741500000000    4.05614700000000   -0.04235100000000
H        -4.40586900000000    3.75546600000000    0.14937100000000
O         0.03035600000000    5.38712200000000    0.23619700000000
H        -0.13833100000000    5.84445900000000   -0.61381000000000
O         2.46042400000000    4.92168300000000    0.35263800000000
H         1.75779200000000    5.60261000000000    0.43203600000000
O         2.42622600000000    3.79088200000000    2.57317000000000
H         2.84373200000000    4.52024700000000    2.06872900000000
O         1.27760300000000    1.27270500000000    4.78807600000000
H         1.76976700000000    2.09531400000000    4.66956900000000
O         3.58912600000000    3.77746400000000   -1.42441300000000
H         4.19019700000000    3.24929800000000   -1.97111900000000
