120
 energy: -265.952198983966 gnorm: 0.000147344661 xtb: 6.4.1 (a3dbbd7)
C         3.53384700000000    0.14935300000000   -0.45557100000000
C         3.27142600000000    1.72259700000000   -0.57092400000000
C         2.56091800000000    1.89202500000000   -1.96725300000000
C         2.56915800000000   -0.43216900000000   -1.44062700000000
C         2.10231100000000    0.47792100000000   -2.27724600000000
C         2.52394700000000   -1.90471900000000   -1.63776700000000
C         2.34511400000000   -2.67506500000000   -0.26893000000000
C         3.39938100000000   -0.47580900000000    0.95197800000000
C         2.94762100000000   -2.01136300000000    1.02685400000000
C         2.41357400000000    0.23418500000000    1.82409000000000
C         2.39856900000000    2.23508000000000    0.52257200000000
C         2.50667000000000    1.71066400000000    1.94433600000000
C         1.35755500000000    3.07008000000000    0.38706200000000
C         1.38407000000000    2.97075400000000   -2.12996600000000
C         0.91084000000000    3.77631600000000   -0.84387000000000
C         0.12700000000000    2.26249800000000   -2.54408300000000
C         1.27708100000000    0.18731300000000   -3.48459700000000
C         0.08287200000000    1.08333200000000   -3.22807600000000
C         1.29507700000000   -2.35284500000000   -2.50748800000000
C         0.67016700000000   -1.28876100000000   -3.49860200000000
C         0.86015800000000   -2.93265900000000   -0.26819000000000
C         0.30106400000000   -2.81829300000000   -1.45502000000000
C         0.22079900000000   -3.56880200000000    0.90386700000000
C         1.94276700000000   -2.04033100000000    2.26695100000000
C         1.68325600000000   -0.57810300000000    2.55739500000000
C         0.57653900000000   -2.61211700000000    2.01795100000000
C         0.79399500000000   -0.16192900000000    3.67605300000000
C         1.29463300000000    2.35096600000000    2.70035500000000
C         0.54435000000000    3.02652300000000    1.56272400000000
C         0.39119200000000    1.37790500000000    3.59416900000000
C        -0.78673700000000    3.18026200000000    1.47818800000000
C        -0.69253100000000    3.90242300000000   -0.97722200000000
C        -1.01536700000000    2.76433300000000   -1.88581000000000
C        -1.55393600000000    3.81550600000000    0.34323300000000
C        -2.18814900000000    2.07210600000000   -1.87753400000000
C        -1.07756800000000    0.30766400000000   -3.12060600000000
C        -0.77534000000000   -1.05938100000000   -3.09635100000000
C        -2.19542800000000    0.79808900000000   -2.46041900000000
C        -1.11761300000000   -3.17439600000000   -1.78612900000000
C        -1.59123900000000   -1.86627100000000   -2.35511900000000
C        -1.36076500000000   -3.57157300000000    0.86207000000000
C        -2.08294400000000   -3.46768000000000   -0.55437800000000
C        -0.52156900000000   -2.04764500000000    2.53989800000000
C        -0.56047700000000   -0.96933000000000    3.59247000000000
C        -1.68665100000000   -2.41580400000000    1.76237500000000
C        -1.00602800000000    1.31353700000000    3.03413900000000
C        -1.59432500000000    2.24940100000000    2.19619600000000
C        -1.53183800000000    0.04638200000000    3.07224900000000
C        -2.95797300000000    2.95713000000000    0.34218300000000
C        -3.38871500000000    2.25129500000000   -0.98711700000000
C        -2.71803300000000    1.93770700000000    1.41924400000000
C        -3.06714700000000   -0.05716100000000   -1.77609500000000
C        -2.71703300000000   -1.36860800000000   -1.67783800000000
C        -3.27169900000000   -2.34516000000000   -0.69266400000000
C        -4.02097200000000    0.72356100000000   -0.92294000000000
C        -2.72677200000000   -1.57799600000000    1.65313800000000
C        -2.60174200000000   -0.28438400000000    2.25752300000000
C        -3.22872000000000    0.66583300000000    1.45334200000000
C        -3.78482300000000   -1.58286500000000    0.59098700000000
C        -4.16369200000000    0.02143800000000    0.46675800000000
O         4.84488100000000   -0.12183100000000   -0.91794100000000
H         5.30079900000000    0.74676500000000   -0.91762100000000
O         3.69783900000000   -2.32881300000000   -2.28970100000000
H         4.42462700000000   -1.74824700000000   -2.01391500000000
O         2.01465000000000    0.45661400000000   -4.63704700000000
H         1.68406300000000   -0.15141800000000   -5.32146100000000
O         4.52022000000000    2.36580900000000   -0.56215700000000
H         4.62922300000000    2.78128600000000   -1.43554500000000
O         0.76877700000000   -1.74864900000000   -4.81850900000000
H         1.13189700000000   -2.65359200000000   -4.77939100000000
O         1.66299800000000   -3.48512100000000   -3.27166900000000
H         2.62314000000000   -3.59786900000000   -3.16838400000000
O         3.59161500000000    2.22914300000000   -2.86431600000000
H         3.19897000000000    2.31176400000000   -3.74623300000000
O         2.90095500000000   -3.96904200000000   -0.41006200000000
H         3.78796900000000   -3.94296700000000   -0.00613700000000
O         4.09495400000000   -2.75033200000000    1.34620200000000
H         4.05374700000000   -2.92260200000000    2.30648300000000
O         4.63957700000000   -0.33929600000000    1.61319000000000
H         5.32184900000000   -0.70509400000000    1.02683600000000
O         1.77805300000000    3.88344800000000   -3.11172500000000
H         2.10185300000000    4.67539300000000   -2.64359900000000
O         1.47299100000000    5.05430400000000   -0.87022500000000
H         0.76793800000000    5.63827300000000   -1.22583400000000
O        -0.94098900000000    5.13657600000000   -1.59567900000000
H        -1.43088600000000    5.67124500000000   -0.93650500000000
O        -1.87573600000000    5.13904800000000    0.68907500000000
H        -2.79982200000000    5.11442400000000    1.01725900000000
O        -3.97869500000000    3.83131700000000    0.74078700000000
H        -4.52306000000000    3.98848300000000   -0.05868600000000
O        -4.34591900000000    3.08031500000000   -1.59194800000000
H        -5.02520200000000    2.47878000000000   -1.96384300000000
O        -5.27869200000000    0.77835000000000   -1.53573600000000
H        -5.93168800000000    0.65954600000000   -0.81493000000000
O        -5.50058500000000    0.17401200000000    0.86547300000000
H        -5.76767400000000   -0.69137800000000    1.24289000000000
O        -4.93023500000000   -2.23639700000000    1.06137100000000
H        -5.27250100000000   -2.74216200000000    0.29151200000000
O        -4.39855200000000   -2.99141900000000   -1.23109200000000
H        -4.10947300000000   -3.90442900000000   -1.44487100000000
O        -2.68620100000000   -4.69623400000000   -0.80630100000000
H        -2.68447100000000   -5.18758300000000    0.04272800000000
O        -1.79925400000000   -4.76487500000000    1.47576000000000
H        -1.02132100000000   -5.34760300000000    1.54515500000000
O         1.49503600000000   -0.44773900000000    4.84969300000000
H         1.04786200000000    0.03406600000000    5.56508300000000
O        -0.84858200000000   -1.47821200000000    4.86969600000000
H        -1.70416300000000   -1.92110500000000    4.83739700000000
O         0.37558000000000    1.84660600000000    4.91262000000000
H         0.84852600000000    2.70276600000000    4.90662600000000
O         2.60185800000000   -2.65899000000000    3.34912300000000
H         2.34715500000000   -2.18850900000000    4.15961500000000
O         3.69728000000000    2.08555400000000    2.59319500000000
H         4.38180900000000    1.43419500000000    2.36753900000000
O         1.77065300000000    3.36384900000000    3.55376300000000
H         2.74126700000000    3.29179800000000    3.56423500000000
O         0.68894800000000   -4.88224500000000    1.08866300000000
H         1.53064600000000   -4.97172100000000    0.60914600000000
O        -1.17230500000000   -4.26402900000000   -2.66431700000000
H        -0.34279400000000   -4.30402400000000   -3.15853300000000
