128
 energy: -284.285215677332 gnorm: 0.000308455572 xtb: 6.4.1 (a3dbbd7)
C         2.71816800000000   -1.66334200000000   -1.66993200000000
C         2.67704700000000   -0.23454500000000   -2.33580500000000
C         1.45624200000000   -0.28130300000000   -3.30536300000000
C         1.28406200000000   -2.09947000000000   -1.79522400000000
C         0.63951000000000   -1.42851700000000   -2.73121600000000
C         0.85418800000000   -3.42545200000000   -1.30196400000000
C         1.29140700000000   -3.59114000000000    0.20921500000000
C         3.34221500000000   -1.77690900000000   -0.24408300000000
C         2.48022800000000   -2.68207000000000    0.74975500000000
C         3.56249200000000   -0.42454600000000    0.58608600000000
C         2.51742300000000    0.84849200000000   -1.32636700000000
C         3.49551800000000    0.89911100000000   -0.20172800000000
C         1.83870700000000    1.97608000000000   -1.47041700000000
C         0.60294400000000    1.04982600000000   -3.46619800000000
C         1.03601200000000    2.34921700000000   -2.66146500000000
C        -0.74667300000000    0.79207700000000   -2.88489200000000
C        -0.75283900000000   -1.71553000000000   -3.21119400000000
C        -1.38409900000000   -0.41953400000000   -2.81170700000000
C        -0.71836000000000   -3.59126500000000   -1.31180600000000
C        -1.56636800000000   -2.81491500000000   -2.39733100000000
C         0.02487300000000   -3.19258000000000    0.91462700000000
C        -1.07096600000000   -3.15540100000000    0.07250400000000
C        -0.06918500000000   -2.64920100000000    2.17504500000000
C         2.00340700000000   -1.69349100000000    1.79448500000000
C         2.55818800000000   -0.50374100000000    1.68525300000000
C         1.13195000000000   -2.15430800000000    2.92263600000000
C         2.54930800000000    0.54151800000000    2.73587000000000
C         3.10364100000000    2.19658500000000    0.63107900000000
C         2.16858700000000    3.01097900000000   -0.42846500000000
C         2.46767100000000    1.97751700000000    2.06283400000000
C         0.88175600000000    3.73814000000000    0.08661000000000
C        -0.32683800000000    3.05492000000000   -2.24050500000000
C        -1.23036300000000    1.86826600000000   -2.16469700000000
C        -0.36808200000000    3.90111700000000   -0.91969300000000
C        -2.33212700000000    1.70651800000000   -1.37244200000000
C        -2.46145300000000   -0.59458200000000   -1.97051500000000
C        -2.88512200000000   -2.01421500000000   -1.83930200000000
C        -2.92336000000000    0.46324400000000   -1.24224700000000
C        -2.24705000000000   -2.58194200000000    0.49214500000000
C        -3.40446600000000   -2.24436000000000   -0.37515100000000
C        -1.24154700000000   -2.05976100000000    2.59053400000000
C        -2.33482400000000   -2.03113900000000    1.75150900000000
C         0.58614800000000   -1.00960400000000    3.86981100000000
C         1.26335100000000    0.42092700000000    3.65083200000000
C        -1.03636500000000   -1.07526800000000    3.71355500000000
C         1.00218500000000    2.20190400000000    2.06998500000000
C         0.29296900000000    2.98986900000000    1.21792000000000
C         0.34418100000000    1.37407200000000    2.96519600000000
C        -1.69352000000000    3.64609600000000    0.04318100000000
C        -2.89175300000000    2.73443200000000   -0.46473300000000
C        -1.09706700000000    2.98587700000000    1.22538500000000
C        -4.03116400000000    0.42985300000000   -0.25063500000000
C        -4.12487400000000   -0.98937100000000    0.44626000000000
C        -3.51328900000000   -1.09376400000000    1.89974200000000
C        -3.78584300000000    1.80678800000000    0.56343700000000
C        -1.75004500000000    0.13314500000000    3.16722200000000
C        -1.02011200000000    1.34631600000000    2.94460200000000
C        -1.75972500000000    2.16350300000000    2.07883600000000
C        -2.86281800000000    0.15779400000000    2.39942500000000
C        -3.15758700000000    1.60337600000000    1.96503400000000
O         3.40805300000000   -2.54033400000000   -2.54121800000000
H         4.35157400000000   -2.49558900000000   -2.32021200000000
O         1.40722400000000   -4.43981200000000   -2.09971000000000
H         2.24769000000000   -4.11174600000000   -2.46225100000000
O        -0.73796200000000   -1.97826400000000   -4.58530400000000
H        -1.21896200000000   -2.80985700000000   -4.72643800000000
O         3.87373500000000    0.00583700000000   -3.03471300000000
H         3.73025600000000   -0.33416700000000   -3.93526200000000
O        -2.02314400000000   -3.75159000000000   -3.33159100000000
H        -1.87350800000000   -4.63002500000000   -2.91245700000000
O        -1.00848500000000   -4.96605400000000   -1.46895000000000
H        -0.16171400000000   -5.43964700000000   -1.49684700000000
O         1.96288100000000   -0.65927300000000   -4.55760700000000
H         1.21472200000000   -0.66766100000000   -5.17471500000000
O         1.57248900000000   -4.94304300000000    0.43509800000000
H         2.52189500000000   -5.02278100000000    0.62867000000000
O         0.53190000000000    1.36358300000000   -4.82455700000000
H         1.22066600000000    2.03168000000000   -4.99108800000000
O         1.77332000000000    3.18987000000000   -3.49354200000000
H         1.13491800000000    3.86153400000000   -3.81126900000000
O         4.83197800000000   -0.47768700000000    1.20912400000000
H         5.42816700000000    0.03450800000000    0.62389800000000
O         4.79000900000000    1.12286200000000   -0.73215700000000
H         4.79320300000000    0.83303100000000   -1.66080000000000
O         1.83847600000000   -3.13758800000000    3.64426200000000
H         1.69334000000000   -2.95957400000000    4.58900400000000
O         0.87165000000000   -1.41109900000000    5.18216800000000
H         1.18747800000000   -0.59783200000000    5.63920700000000
O         1.59961600000000    0.91516200000000    4.93358200000000
H         2.55941100000000    1.07304000000000    4.93351900000000
O         3.67945800000000    0.41329300000000    3.55411600000000
H         4.43041300000000    0.16835300000000    2.98389800000000
O        -0.67241700000000    3.87439900000000   -3.33053700000000
H        -0.86184200000000    4.76055100000000   -2.97168500000000
O        -0.41043700000000    5.23861400000000   -1.31648300000000
H        -0.87240100000000    5.71786500000000   -0.59980800000000
O         4.60263600000000   -2.35153400000000   -0.44098200000000
H         4.92046000000000   -2.66256400000000    0.42002800000000
O         3.40976500000000   -3.53588100000000    1.39491900000000
H         3.07696600000000   -3.69297800000000    2.29698900000000
O        -2.21077000000000    4.90445300000000    0.35984200000000
H        -3.01777300000000    4.99526600000000   -0.19044100000000
O        -3.78047100000000    3.60323400000000   -1.11027500000000
H        -4.62894300000000    3.52055600000000   -0.61919100000000
O        -5.00885800000000    2.44591000000000    0.70937800000000
H        -5.65255800000000    1.91482400000000    0.18931800000000
O        -4.31777700000000   -3.29692000000000   -0.37734500000000
H        -4.81214900000000   -3.22565900000000   -1.21409300000000
O        -5.48954300000000   -1.27966300000000    0.50539800000000
H        -5.62791200000000   -1.91355700000000    1.22481900000000
O        -4.50779300000000   -1.60020100000000    2.76140200000000
H        -4.10543500000000   -1.73760900000000    3.62831100000000
O        -3.96550100000000   -2.30629300000000   -2.69035200000000
H        -3.64140600000000   -2.94218000000000   -3.35487600000000
O        -5.24430300000000    0.64521300000000   -0.94555000000000
H        -5.80755600000000   -0.13403900000000   -0.80632200000000
O         1.25337900000000    5.00603500000000    0.55843900000000
H         1.83879700000000    5.38655900000000   -0.11863500000000
O         2.95088000000000    4.01874000000000   -1.01501400000000
H         3.88409400000000    3.78709800000000   -0.88345300000000
O         4.27984700000000    2.92971500000000    0.79416400000000
H         4.35815400000000    3.16091200000000    1.73906800000000
O         3.08522600000000    2.88150500000000    2.96776200000000
H         2.60878900000000    3.72220300000000    2.93136200000000
O        -1.63331200000000   -1.44682900000000    4.92529400000000
H        -0.92584500000000   -1.77317700000000    5.50814300000000
O        -4.04556700000000    2.18494100000000    2.89029700000000
H        -3.64141800000000    2.15452400000000    3.76557000000000
