132
 energy: -293.452485198136 gnorm: 0.000102091852 xtb: 6.4.1 (a3dbbd7)
C        -3.38474500000000   -1.56042800000000   -0.23342500000000
C        -3.63396800000000   -0.30436800000000    0.67208900000000
C        -2.96365500000000   -0.66770000000000    2.03189200000000
C        -2.15677200000000   -2.16852500000000    0.39408100000000
C        -1.94708000000000   -1.70395600000000    1.61607200000000
C        -1.57676200000000   -3.42633800000000   -0.14064400000000
C        -1.25082700000000   -3.26698100000000   -1.67423500000000
C        -3.30741500000000   -1.33798000000000   -1.77477400000000
C        -2.09424900000000   -2.17395300000000   -2.45638600000000
C        -3.10699400000000    0.16180700000000   -2.32105500000000
C        -3.02685600000000    0.92214400000000    0.09063200000000
C        -3.34180300000000    1.32629400000000   -1.31674200000000
C        -2.44751600000000    1.88178000000000    0.78910300000000
C        -2.28807300000000    0.47898100000000    2.87196700000000
C        -2.23723000000000    1.92556500000000    2.26247700000000
C        -0.83267000000000    0.15203400000000    3.04208200000000
C        -1.04533200000000   -2.32549200000000    2.62619500000000
C        -0.28198600000000   -1.18998900000000    3.39046000000000
C        -0.20920400000000   -3.77316500000000    0.54415900000000
C         0.07409100000000   -3.19917900000000    1.97636800000000
C         0.24037100000000   -2.94891500000000   -1.61524500000000
C         0.78105700000000   -3.20417400000000   -0.43624600000000
C         0.98391000000000   -2.45147300000000   -2.81862800000000
C        -1.14286500000000   -1.08899000000000   -2.86999000000000
C        -1.69352100000000    0.16883400000000   -2.76073700000000
C         0.20042000000000   -1.21658600000000   -3.13320200000000
C        -0.91908600000000    1.28428400000000   -2.89285800000000
C        -2.51550300000000    2.71127200000000   -1.52228500000000
C        -2.10354600000000    3.08250900000000   -0.04716900000000
C        -1.32146900000000    2.68371100000000   -2.56844300000000
C        -0.64276100000000    3.25586100000000    0.19297100000000
C        -0.79315300000000    2.47196100000000    2.65429200000000
C        -0.04440900000000    1.20370100000000    2.91268600000000
C        -0.12632600000000    3.42089100000000    1.60268700000000
C         1.42579000000000    1.25004200000000    3.11920900000000
C         1.10084100000000   -1.22559300000000    2.78526700000000
C         1.27435900000000   -2.25494600000000    1.97174500000000
C         2.10081300000000   -0.16888000000000    3.13096900000000
C         2.25272200000000   -3.03160800000000   -0.19781200000000
C         2.55662200000000   -2.56053800000000    1.26906300000000
C         2.43323600000000   -1.87802700000000   -2.52414000000000
C         2.67469300000000   -1.85754100000000   -1.05057900000000
C         1.00059600000000   -0.09344500000000   -3.23588100000000
C         0.43087400000000    1.15095700000000   -3.15843300000000
C         2.46207900000000   -0.41512400000000   -3.14003900000000
C         0.09428200000000    3.32341100000000   -2.18634800000000
C         0.31023000000000    3.33810300000000   -0.71613600000000
C         1.19480600000000    2.40430800000000   -2.89143800000000
C         1.44141000000000    3.24403100000000    1.42520100000000
C         1.95241900000000    1.90091900000000    1.86622000000000
C         1.68881500000000    3.45367700000000   -0.11130300000000
C         3.25597200000000   -0.07094900000000    2.06731200000000
C         3.47560700000000   -1.29226400000000    1.09994400000000
C         3.25286500000000   -0.89279500000000   -0.35354300000000
C         2.88631700000000    1.16422200000000    1.27930100000000
C         3.20210600000000    0.73893200000000   -2.33098200000000
C         2.27230200000000    1.89681200000000   -1.95882000000000
C         2.50314300000000    2.36007000000000   -0.74056900000000
C         3.84386700000000    0.35209300000000   -0.94126100000000
C         3.55226000000000    1.57999200000000    0.00282000000000
O        -4.43676700000000   -2.48979800000000    0.01478500000000
H        -5.17606600000000   -1.97361000000000    0.38863700000000
O        -2.46208600000000   -4.49518700000000    0.08734800000000
H        -3.37013700000000   -4.15999700000000    0.07217500000000
O        -1.85407800000000   -3.07746500000000    3.49454100000000
H        -1.32263200000000   -3.85683300000000    3.74393500000000
O        -5.02760900000000   -0.11638900000000    0.82491700000000
H        -5.22754500000000   -0.21608100000000    1.77040000000000
O         0.31008500000000   -4.24952700000000    2.87862400000000
H         0.49707000000000   -5.04004500000000    2.33779300000000
O        -0.05642900000000   -5.17147600000000    0.60414200000000
H        -0.85493900000000   -5.57040600000000    0.22658900000000
O        -3.96542900000000   -1.28884600000000    2.80768900000000
H        -3.54362800000000   -1.95694000000000    3.37090600000000
O        -1.37915800000000   -4.51658600000000   -2.30433800000000
H        -2.07625700000000   -4.43240100000000   -2.97825900000000
O        -2.63249200000000   -2.83229500000000   -3.57984200000000
H        -3.37975800000000   -2.29920900000000   -3.89705900000000
O        -4.51192100000000   -1.75579900000000   -2.34715800000000
H        -4.86161800000000   -2.48919900000000   -1.81342900000000
O        -2.91394600000000    0.58597800000000    4.12919100000000
H        -2.49558600000000   -0.03672500000000    4.73819200000000
O        -3.22929300000000    2.75821600000000    2.79520000000000
H        -3.34089300000000    2.50012500000000    3.72484900000000
O        -0.86158300000000    3.15163200000000    3.88523700000000
H        -0.99139900000000    4.09524200000000    3.66312900000000
O        -0.39525200000000    4.74072200000000    2.01917900000000
H         0.47647700000000    5.15505000000000    2.17918100000000
O         2.06718600000000    4.25134300000000    2.18012200000000
H         2.78679600000000    4.61427700000000    1.64231300000000
O         4.70737800000000    2.32476200000000    0.24650500000000
H         5.45621400000000    1.73829600000000    0.02829800000000
O         3.03753900000000   -0.49039700000000   -4.41549600000000
H         3.52804700000000   -1.33823700000000   -4.43525200000000
O         1.72340300000000    3.02910200000000   -4.01943900000000
H         1.50048900000000    3.97421700000000   -3.95100100000000
O         2.25964500000000    4.72895700000000   -0.28174100000000
H         2.18610400000000    4.97483400000000   -1.21145000000000
O         4.25201400000000    1.23019900000000   -3.12051800000000
H         4.04080600000000    0.97984700000000   -4.04166400000000
O         5.22731800000000    0.18541100000000   -1.06504900000000
H         5.45766400000000    0.53524100000000   -1.94866900000000
O         2.94873100000000   -4.19840400000000   -0.51836400000000
H         3.19394800000000   -4.61368300000000    0.32821700000000
O         1.07655200000000   -3.43774300000000   -3.81300900000000
H         0.33978500000000   -4.05446100000000   -3.69645600000000
O         3.41096000000000   -2.64435100000000   -3.16771400000000
H         2.98175000000000   -3.46122700000000   -3.47358300000000
O         4.79102300000000   -1.76201400000000    1.24746100000000
H         5.30940300000000   -1.03522000000000    1.63937800000000
O         4.46279900000000    0.18049600000000    2.74289500000000
H         4.31803000000000   -0.09665500000000    3.66903000000000
O         3.22688900000000   -3.57212000000000    1.96554400000000
H         4.17293000000000   -3.32546000000000    1.93406200000000
O         2.64279800000000   -0.44448200000000    4.39599400000000
H         2.48106300000000    0.34815500000000    4.94206800000000
O         1.75184500000000    1.91780200000000    4.31353000000000
H         1.07762200000000    2.59657200000000    4.47437200000000
O        -0.32429800000000   -1.35483800000000    4.78368200000000
H         0.28581300000000   -2.06198500000000    5.02801900000000
O         0.19193900000000    4.62389500000000   -2.69400800000000
H        -0.51575300000000    4.68116600000000   -3.37201900000000
O        -3.40844200000000    3.66542800000000   -2.00640400000000
H        -3.74374900000000    4.16954900000000   -1.24559000000000
O        -1.72032800000000    3.36029700000000   -3.73595100000000
H        -2.64617000000000    3.63306100000000   -3.61009700000000
O        -2.84622400000000    4.21362600000000    0.34234800000000
H        -2.94329700000000    4.20267800000000    1.30593800000000
O        -3.92656800000000    0.34502600000000   -3.43609400000000
H        -4.70574000000000    0.84902800000000   -3.14234900000000
O        -4.71055500000000    1.67760300000000   -1.38678300000000
H        -5.19860100000000    1.15303900000000   -0.73432800000000
