132
 energy: -293.454189758830 gnorm: 0.000233268079 xtb: 6.4.1 (a3dbbd7)
C        -3.53279000000000    1.11342100000000   -0.34131800000000
C        -3.28509400000000    0.27449500000000   -1.65556000000000
C        -2.45478400000000    1.21128300000000   -2.58660800000000
C        -2.37872500000000    2.07687900000000   -0.38249600000000
C        -1.86090000000000    2.19127400000000   -1.59110300000000
C        -2.21658600000000    3.09839600000000    0.67268200000000
C        -2.21934000000000    2.38820500000000    2.08964700000000
C        -3.72310600000000    0.33016300000000    1.00088500000000
C        -2.91164500000000    0.96072400000000    2.22468900000000
C        -3.30212500000000   -1.21611600000000    1.03263000000000
C        -2.53621800000000   -0.97747900000000   -1.37430400000000
C        -3.08111300000000   -1.89716900000000   -0.33402700000000
C        -1.63860300000000   -1.55650200000000   -2.15631000000000
C        -1.34738600000000    0.54117800000000   -3.51494100000000
C        -1.13680800000000   -1.03161400000000   -3.44959700000000
C        -0.01180100000000    1.02847600000000   -3.06008200000000
C        -0.81666700000000    3.18192800000000   -2.01243400000000
C         0.25026800000000    2.22380400000000   -2.44112400000000
C        -0.82172900000000    3.83724900000000    0.56957500000000
C        -0.14638100000000    4.02892800000000   -0.84704900000000
C        -0.74493800000000    2.21153600000000    2.31199400000000
C         0.01903700000000    2.97943300000000    1.45266600000000
C        -0.14297400000000    1.23478800000000    3.06582000000000
C        -1.91214100000000   -0.12501100000000    2.57545200000000
C        -2.10462700000000   -1.25155200000000    1.92339800000000
C        -0.89886800000000    0.08749400000000    3.65632400000000
C        -1.47195200000000   -2.55045700000000    2.26359700000000
C        -2.09579600000000   -3.13392200000000   -0.32775000000000
C        -1.32251900000000   -2.96731400000000   -1.75242100000000
C        -1.14225500000000   -3.28189300000000    0.91015600000000
C         0.20805100000000   -3.22103100000000   -1.80602200000000
C         0.43684400000000   -1.25857700000000   -3.61304200000000
C         0.94968600000000    0.03351700000000   -3.06857100000000
C         1.10453100000000   -2.49315300000000   -2.90774900000000
C         2.14863100000000    0.25235800000000   -2.45266000000000
C         1.44308900000000    2.42710100000000   -1.77882800000000
C         1.45260100000000    3.66074600000000   -0.94448600000000
C         2.38968200000000    1.44202000000000   -1.78357900000000
C         1.36916800000000    2.77184100000000    1.36888700000000
C         2.27943600000000    3.36624800000000    0.35844600000000
C         1.20342400000000    0.97980500000000    2.93794000000000
C         1.96337000000000    1.78115100000000    2.12176900000000
C         0.17883000000000   -1.05808300000000    3.83656100000000
C        -0.06389900000000   -2.34399400000000    2.96101500000000
C         1.62204100000000   -0.31579600000000    3.56387300000000
C         0.22786100000000   -2.76252200000000    0.68463100000000
C         0.87158500000000   -2.78755000000000   -0.55911400000000
C         0.85708100000000   -2.35181600000000    1.78364600000000
C         2.52836700000000   -2.20182100000000   -2.10019700000000
C         3.19875800000000   -0.76888200000000   -2.21693400000000
C         2.14437400000000   -2.43230800000000   -0.68221900000000
C         3.66007800000000    1.42008700000000   -1.00422200000000
C         3.52547500000000    2.27798500000000    0.31244800000000
C         3.34204100000000    1.43905000000000    1.64205900000000
C         3.93557700000000   -0.15350400000000   -0.92018500000000
C         2.74805600000000   -0.93874000000000    2.63045100000000
C         2.33702800000000   -2.24802300000000    1.88903300000000
C         3.04697400000000   -2.17233300000000    0.47813900000000
C         3.19226900000000   -0.03872700000000    1.47194100000000
C         3.40044600000000   -0.71058000000000    0.35291700000000
O        -4.66428600000000    1.93805900000000   -0.55026400000000
H        -5.44312900000000    1.45410100000000   -0.23116200000000
O        -3.23551400000000    4.05761200000000    0.58472600000000
H        -4.02044300000000    3.62862600000000    0.20411200000000
O        -1.32885200000000    3.99613500000000   -3.03057100000000
H        -1.16496300000000    4.91814200000000   -2.77230900000000
O        -4.51152400000000   -0.07887100000000   -2.24409100000000
H        -4.75711200000000    0.66595000000000   -2.81944400000000
O        -0.27459300000000    5.37683500000000   -1.20303200000000
H        -0.55087200000000    5.83893400000000   -0.37971100000000
O        -0.96718900000000    5.12814100000000    1.12699800000000
H        -1.82296700000000    5.15755800000000    1.58079300000000
O        -3.38313100000000    1.88475400000000   -3.39507400000000
H        -2.88794000000000    2.53351800000000   -3.91828700000000
O        -2.76285300000000    3.28554000000000    3.01542200000000
H        -3.58647700000000    2.89857500000000    3.35826500000000
O        -1.60058800000000    0.90884400000000   -4.83687100000000
H        -2.14138400000000    0.19992000000000   -5.22618900000000
O        -1.81689300000000   -1.64157600000000   -4.50167200000000
H        -1.14571200000000   -1.76692500000000   -5.20392600000000
O        -4.30231100000000   -1.94970400000000    1.71129000000000
H        -4.86129000000000   -2.34326900000000    1.00985300000000
O        -4.34427000000000   -2.36782600000000   -0.77052700000000
H        -4.71504500000000   -1.71452600000000   -1.38897500000000
O        -1.58292900000000    0.35967900000000    4.85221100000000
H        -1.01468400000000    0.05656800000000    5.57824300000000
O         0.13443800000000   -1.41617300000000    5.18094800000000
H         0.37430900000000   -2.35677100000000    5.24428000000000
O         0.20014900000000   -3.47888700000000    3.77485100000000
H        -0.63856300000000   -3.96519900000000    3.85243200000000
O        -2.28328500000000   -3.30592800000000    3.11469400000000
H        -3.20922000000000   -3.13891700000000    2.86540300000000
O         0.66048700000000   -1.33468800000000   -4.99979600000000
H         1.16092400000000   -2.15201900000000   -5.16806100000000
O         1.39485900000000   -3.41074400000000   -3.91945400000000
H         2.06599100000000   -4.01911700000000   -3.56239000000000
O        -5.09691700000000    0.38603200000000    1.26409600000000
H        -5.22416700000000    0.17039300000000    2.20051300000000
O        -3.82179500000000    1.02961000000000    3.30915500000000
H        -3.30722400000000    0.87144200000000    4.12151200000000
O         3.46894900000000   -3.14753700000000   -2.52910800000000
H         4.01299700000000   -2.68607900000000   -3.20222800000000
O         4.13354600000000   -0.84528100000000   -3.25985900000000
H         5.00860600000000   -0.68387100000000   -2.85318200000000
O         5.30713000000000   -0.39953800000000   -1.03359700000000
H         5.71623600000000    0.46684900000000   -1.23721600000000
O         2.80762400000000    4.56461000000000    0.83879400000000
H         3.02478800000000    5.10012900000000    0.05408900000000
O         4.71118300000000    3.01108100000000    0.39138900000000
H         4.79310400000000    3.34190800000000    1.29740700000000
O         4.37729800000000    1.78427500000000    2.52702500000000
H         4.38148200000000    1.14582600000000    3.25162100000000
O         2.10629100000000    4.71902600000000   -1.59834600000000
H         1.43066600000000    5.39754000000000   -1.78600100000000
O         4.72500100000000    1.92415300000000   -1.77982300000000
H         5.00995300000000    2.76227500000000   -1.38263700000000
O         0.41058500000000   -4.61430800000000   -1.89492400000000
H        -0.23070800000000   -4.93143400000000   -2.55545300000000
O        -1.88460200000000   -3.87385500000000   -2.66565300000000
H        -2.79403900000000   -4.05775000000000   -2.38338100000000
O        -2.89060600000000   -4.27842800000000   -0.40352500000000
H        -2.53513900000000   -4.92846800000000    0.23114000000000
O        -1.01486200000000   -4.67055700000000    1.19056000000000
H        -0.36365400000000   -5.04562800000000    0.57848000000000
O         2.16702300000000   -0.06214700000000    4.82554100000000
H         2.99767200000000   -0.56533000000000    4.89604200000000
O         3.87769000000000   -1.20335100000000    3.43178600000000
H         4.10114500000000   -2.14361600000000    3.29393300000000
O         2.81723600000000   -3.36093800000000    2.60470200000000
H         2.09419800000000   -3.72558000000000    3.13954100000000
O         4.16210700000000   -3.01526800000000    0.48162500000000
H         4.40858000000000   -3.20459300000000   -0.43414500000000
