132
 energy: -293.453247172654 gnorm: 0.000453073233 xtb: 6.4.1 (a3dbbd7)
C         1.44482500000000   -2.78853000000000   -1.86817400000000
C         0.09354800000000   -3.37019300000000   -1.30690700000000
C         0.37210100000000   -3.58318800000000    0.21322100000000
C         2.06486100000000   -2.17360200000000   -0.63754600000000
C         1.51756200000000   -2.63874100000000    0.47440100000000
C         3.39690100000000   -1.51625100000000   -0.69005500000000
C         3.41921000000000   -0.41339400000000   -1.80043500000000
C         1.37618000000000   -1.86911500000000   -3.12825900000000
C         2.35029800000000   -0.57067800000000   -2.97449300000000
C        -0.05176500000000   -1.25849000000000   -3.50055000000000
C        -1.04259500000000   -2.43097600000000   -1.51424700000000
C        -1.33496200000000   -1.89516800000000   -2.88206400000000
C        -1.99765500000000   -2.17277800000000   -0.63580400000000
C        -0.79018000000000   -3.32575600000000    1.24017300000000
C        -2.16357600000000   -2.81571700000000    0.68963900000000
C        -0.40420200000000   -2.21905700000000    2.17867200000000
C         2.09113500000000   -2.51677900000000    1.84348600000000
C         0.93106400000000   -2.17632500000000    2.85394900000000
C         3.73554400000000   -0.77179300000000    0.63817300000000
C         3.11260400000000   -1.32810400000000    1.96665900000000
C         3.19682800000000    0.85975800000000   -0.96873200000000
C         3.29810400000000    0.64431700000000    0.33109700000000
C         2.86579100000000    2.18367900000000   -1.59856700000000
C         1.36066200000000    0.53065600000000   -2.78241600000000
C         0.06766600000000    0.13279900000000   -3.02870700000000
C         1.58312100000000    1.77227700000000   -2.24773300000000
C        -0.98014800000000    0.94308100000000   -2.71998500000000
C        -2.65349700000000   -0.94447800000000   -2.64117400000000
C        -3.16437000000000   -1.43984500000000   -1.22122400000000
C        -2.41745200000000    0.60019700000000   -2.83379600000000
C        -3.72709000000000   -0.35294800000000   -0.26224400000000
C        -2.68719500000000   -1.80664400000000    1.78030800000000
C        -1.40054300000000   -1.38405200000000    2.44378700000000
C        -3.61908000000000   -0.63898700000000    1.30492900000000
C        -1.38334300000000   -0.37323800000000    3.54008800000000
C         1.15803900000000   -0.73020000000000    3.16379800000000
C         2.27451200000000   -0.24848800000000    2.62506000000000
C         0.09290000000000    0.09378000000000    3.84506900000000
C         3.35130600000000    1.72229300000000    1.35552300000000
C         2.63837600000000    1.22089600000000    2.67454300000000
C         2.43418500000000    3.36889700000000   -0.62596500000000
C         2.58270700000000    3.04216400000000    0.91983300000000
C         0.52330200000000    2.58116400000000   -1.90014600000000
C        -0.75690700000000    2.17857100000000   -2.14990600000000
C         0.92378200000000    3.77204900000000   -1.11910200000000
C        -3.02191200000000    1.61940400000000   -1.77222900000000
C        -3.06188700000000    0.97521100000000   -0.44040700000000
C        -2.01550200000000    2.86582200000000   -1.76582700000000
C        -3.22346000000000    0.79745500000000    1.91566500000000
C        -2.18898900000000    0.91443500000000    3.11719100000000
C        -2.80072300000000    1.59200100000000    0.69464000000000
C         0.15697200000000    1.42326600000000    3.15835200000000
C         1.31136900000000    1.92223800000000    2.60386400000000
C         1.25257700000000    2.84612100000000    1.57676400000000
C        -1.07864900000000    1.84442200000000    2.70488400000000
C        -0.21487100000000    4.09127400000000   -0.08230100000000
C        -1.78612500000000    3.70849700000000   -0.45077200000000
C        -2.33323300000000    3.00707300000000    0.85299000000000
C         0.02903500000000    3.29105700000000    1.14745600000000
C        -1.12840200000000    2.80062100000000    1.71896100000000
O         2.27013800000000   -3.89515700000000   -2.20444200000000
H         1.65402100000000   -4.65374400000000   -2.29573100000000
O         4.39404000000000   -2.48727100000000   -0.88204900000000
H         4.09755400000000   -3.11164600000000   -1.55823700000000
O         2.68509100000000   -3.74620500000000    2.15649200000000
H         3.36348500000000   -3.55326300000000    2.82761900000000
O        -0.15467600000000   -4.59464100000000   -1.94878900000000
H        -0.20379800000000   -5.28205400000000   -1.26681400000000
O         4.12745500000000   -1.75410900000000    2.83661800000000
H         4.97522400000000   -1.49146100000000    2.43071500000000
O         5.14719000000000   -0.73689400000000    0.79473000000000
H         5.51694800000000   -1.31033000000000    0.10136200000000
O         0.81942200000000   -4.91442100000000    0.34641400000000
H         1.42018600000000   -4.95620000000000    1.10669400000000
O         4.71206700000000   -0.40085200000000   -2.32250000000000
H         4.70570500000000    0.18646900000000   -3.09390100000000
O         4.69929100000000    2.04768500000000    1.63593700000000
H         5.25720300000000    1.31503200000000    1.33175800000000
O         3.89378500000000    2.56244000000000   -2.46326000000000
H         3.95953500000000    3.52945000000000   -2.42556300000000
O        -0.97618800000000   -4.48370100000000    2.01456900000000
H        -1.63724200000000   -5.03320400000000    1.56576800000000
O         3.04919600000000   -0.41593300000000   -4.17671300000000
H         2.73811300000000   -1.11651700000000   -4.78072100000000
O         1.79740800000000   -2.58748000000000   -4.24379100000000
H         2.31894700000000   -3.34663000000000   -3.92021600000000
O        -3.07473600000000   -3.88151000000000    0.57138900000000
H        -3.54469400000000   -3.89334000000000    1.43624200000000
O        -3.38538100000000   -2.61258500000000    2.70809700000000
H        -4.22561600000000   -2.16738800000000    2.91178100000000
O        -4.89189800000000   -0.96822100000000    1.78151800000000
H        -5.53457000000000   -0.57061300000000    1.16679800000000
O         3.27704800000000    4.43340500000000   -0.92549300000000
H         3.27016200000000    5.03029900000000   -0.15696700000000
O         3.22558000000000    4.13855800000000    1.52939200000000
H         4.15763100000000    3.89637500000000    1.65403400000000
O        -4.42299000000000    1.41249700000000    2.33315900000000
H        -4.36911900000000    1.49171000000000    3.30844100000000
O        -2.87744500000000    1.38340200000000    4.24613000000000
H        -2.85823500000000    0.64787300000000    4.89394500000000
O         0.95224100000000   -2.98795500000000    3.99259400000000
H         0.53446800000000   -3.83103200000000    3.76621400000000
O        -1.98114300000000   -0.91899600000000    4.68747000000000
H        -1.28234600000000   -1.01316700000000    5.35625800000000
O        -2.46250600000000    4.91419000000000   -0.64327700000000
H        -2.89917300000000    5.13873900000000    0.19498100000000
O        -2.41882800000000    3.72920600000000   -2.79906500000000
H        -2.76148300000000    4.53230100000000   -2.36406500000000
O        -4.31234100000000    2.00859600000000   -2.14299200000000
H        -4.20025500000000    2.51675800000000   -2.96607400000000
O        -3.34088500000000    3.81149100000000    1.41403000000000
H        -3.98852500000000    3.22163800000000    1.83933400000000
O         3.38653400000000    1.51360900000000    3.82082000000000
H         4.23838500000000    1.87695600000000    3.52536100000000
O         0.25764500000000    0.11054000000000    5.24141100000000
H         1.17164000000000    0.35399000000000    5.43254300000000
O        -2.85757200000000    0.97903500000000   -4.11517700000000
H        -3.56204300000000    0.35719800000000   -4.36660500000000
O        -3.60471300000000   -1.28413500000000   -3.60268200000000
H        -4.04658400000000   -2.09299200000000   -3.29077800000000
O        -1.74198000000000   -2.96047600000000   -3.68836900000000
H        -1.29889700000000   -2.85693500000000   -4.54957100000000
O        -0.17822900000000    5.44920800000000    0.22787800000000
H         0.20602900000000    5.91112800000000   -0.53808600000000
O         1.07821900000000    4.90976200000000   -1.94469100000000
H         0.43927800000000    4.85258500000000   -2.66623700000000
O        -0.17285200000000   -1.31894100000000   -4.90637100000000
H        -0.77499200000000   -0.61508500000000   -5.18462300000000
O        -4.19135100000000   -2.37907900000000   -1.47345900000000
H        -4.09712400000000   -3.11627200000000   -0.84773400000000
O        -5.10344400000000   -0.18657500000000   -0.54188400000000
H        -5.19790500000000    0.49372000000000   -1.22750200000000
