136
 energy: -302.508902862309 gnorm: 0.000233854945 xtb: 6.4.1 (a3dbbd7)
C         3.30035900000000   -1.53974700000000    1.16369000000000
C         2.16464900000000   -1.74536000000000    2.26684700000000
C         2.00287800000000   -0.38534100000000    2.98932600000000
C         3.52784400000000    0.03882400000000    1.15159400000000
C         2.36689100000000    0.58585600000000    1.89348100000000
C         3.87025500000000    0.80007700000000   -0.15100800000000
C         3.47742900000000    0.10780100000000   -1.50671200000000
C         3.03934400000000   -2.28924200000000   -0.21041100000000
C         3.04915300000000   -1.40450300000000   -1.52731400000000
C         1.67956700000000   -3.15345700000000   -0.39397600000000
C         0.84617700000000   -2.19019700000000    1.74789500000000
C         0.80589900000000   -3.37325000000000    0.84681800000000
C        -0.32782100000000   -1.94485200000000    2.30586500000000
C         0.60363000000000   -0.07432300000000    3.67881100000000
C        -0.58238200000000   -1.10350700000000    3.49524600000000
C         0.03718600000000    1.11913400000000    2.98630600000000
C         2.24547100000000    2.04223700000000    2.18468500000000
C         0.76124800000000    2.08683500000000    2.33994800000000
C         3.17599900000000    2.26506800000000   -0.26791800000000
C         2.55167000000000    2.99585400000000    0.97003300000000
C         2.35459300000000    0.94837900000000   -2.03832300000000
C         2.16623500000000    2.07236900000000   -1.35668400000000
C         1.63203700000000    0.60050500000000   -3.31752400000000
C         1.65114500000000   -1.54148700000000   -2.09401200000000
C         0.92752600000000   -2.46230800000000   -1.48910500000000
C         1.29443600000000   -0.92875300000000   -3.40284200000000
C        -0.32087500000000   -3.09101900000000   -2.00263800000000
C        -0.74572600000000   -3.65555100000000    0.60674200000000
C        -1.41899700000000   -2.84354700000000    1.82111000000000
C        -1.33199800000000   -3.33610700000000   -0.81547700000000
C        -2.69327800000000   -2.01194600000000    1.51974800000000
C        -1.90155400000000   -0.22825900000000    3.33155100000000
C        -1.31813800000000    1.00853900000000    2.74903900000000
C        -3.06903900000000   -0.78777200000000    2.44693400000000
C        -1.93048100000000    1.87499600000000    1.89243200000000
C         0.15562500000000    2.93000600000000    1.43420800000000
C         1.13656900000000    3.77486500000000    0.69461700000000
C        -1.19505100000000    2.84433000000000    1.24152300000000
C         1.25097600000000    3.17024700000000   -1.85670000000000
C         0.58960800000000    4.07165700000000   -0.75380400000000
C         0.29116800000000    1.22399800000000   -3.11918000000000
C         0.11116100000000    2.40584000000000   -2.45046300000000
C        -0.26511800000000   -1.02278300000000   -3.71094600000000
C        -1.10239700000000   -2.20974700000000   -3.07294200000000
C        -0.73636600000000    0.31042300000000   -3.21575500000000
C        -2.12018100000000   -2.08330300000000   -0.89780100000000
C        -2.64033100000000   -1.41050000000000    0.15204600000000
C        -2.45345600000000   -1.76898200000000   -2.31211500000000
C        -3.77135300000000    0.27116300000000    1.38292800000000
C        -3.34173900000000    1.79635800000000    1.44082600000000
C        -3.39069800000000   -0.26660300000000    0.05617000000000
C        -1.98445100000000    3.60559000000000    0.25080400000000
C        -1.04531400000000    3.89614600000000   -0.97416300000000
C        -1.10538300000000    2.72008100000000   -1.88629000000000
C        -3.33706000000000    2.65690900000000    0.08852100000000
C        -1.94876700000000    0.63223800000000   -2.67445000000000
C        -3.05257700000000   -0.33782700000000   -2.48360300000000
C        -3.82212700000000    0.31451500000000   -1.23193400000000
C        -2.13780400000000    1.82672000000000   -1.99666800000000
C        -3.44169100000000    1.86849100000000   -1.27705400000000
O         4.46265500000000   -2.06738600000000    1.74829700000000
H         4.83163500000000   -2.72279100000000    1.12850800000000
O         5.25885600000000    0.97618700000000   -0.22409300000000
H         5.60380200000000    0.90108900000000    0.68465500000000
O         2.96751100000000    2.40294700000000    3.34208200000000
H         3.53009400000000    3.15894500000000    3.11267900000000
O         2.55730400000000   -2.76110600000000    3.16012800000000
H         3.50866700000000   -2.62825100000000    3.32554400000000
O         3.47353900000000    3.95282500000000    1.42205100000000
H         4.09563000000000    4.08676200000000    0.67224400000000
O         4.16751200000000    3.14697200000000   -0.76525200000000
H         4.92305300000000    2.59497900000000   -1.04179500000000
O         3.00547800000000   -0.35567800000000    3.99764800000000
H         2.82250500000000    0.42526200000000    4.54722800000000
O         4.52338500000000    0.29900600000000   -2.42210900000000
H         5.30076900000000   -0.19314500000000   -2.12489900000000
O         0.80848000000000    0.16037200000000    5.03942900000000
H         0.76820000000000   -0.69903400000000    5.48939800000000
O        -0.72501600000000   -1.92597500000000    4.62288900000000
H        -1.34801900000000   -1.43024600000000    5.20148900000000
O         2.04209400000000   -4.42530300000000   -0.88870000000000
H         2.08142700000000   -5.01366500000000   -0.10843300000000
O         1.32278600000000   -4.49990000000000    1.53318400000000
H         1.85486200000000   -4.17535300000000    2.28532500000000
O         2.04640300000000   -1.57904800000000   -4.38607900000000
H         1.82199300000000   -1.15305400000000   -5.22836600000000
O        -0.37956100000000   -1.06914300000000   -5.10817800000000
H        -0.93771100000000   -1.84052500000000   -5.32135000000000
O        -1.49080800000000   -3.04679400000000   -4.12655700000000
H        -0.98745100000000   -3.87596100000000   -4.03564500000000
O         0.00614300000000   -4.31209900000000   -2.62218200000000
H         0.80342100000000   -4.66447900000000   -2.18048800000000
O        -2.35862100000000   -0.00362000000000    4.64409500000000
H        -3.31480400000000   -0.18345700000000    4.65030600000000
O        -4.05492000000000   -1.17772100000000    3.35253200000000
H        -4.83531500000000   -1.42790800000000    2.83211600000000
O         4.08728700000000   -3.21895000000000   -0.30286400000000
H         4.26296600000000   -3.35249800000000   -1.25218300000000
O         3.91222800000000   -2.07589600000000   -2.42685400000000
H         3.60039500000000   -1.88746700000000   -3.33148300000000
O        -5.14800700000000    0.20255100000000    1.58185700000000
H        -5.38796000000000    0.99584700000000    2.10029200000000
O        -4.20534400000000    2.39700800000000    2.37253300000000
H        -4.45666100000000    3.26422600000000    2.01342700000000
O        -4.43130900000000    3.51375800000000    0.17406600000000
H        -4.73090200000000    3.67065700000000   -0.74317700000000
O        -4.40805100000000    2.51046900000000   -2.06910500000000
H        -5.20142300000000    1.93522700000000   -2.03296100000000
O        -0.96240400000000   -5.02325300000000    0.78327000000000
H        -1.02143800000000   -5.18436100000000    1.74002200000000
O        -1.70876500000000   -3.80471700000000    2.81306500000000
H        -1.56223900000000   -3.39892500000000    3.68422700000000
O        -2.19639800000000   -4.39348500000000   -1.19943700000000
H        -1.79660900000000   -5.22263000000000   -0.89025600000000
O        -3.95761000000000   -0.34110800000000   -3.55863600000000
H        -4.05895600000000   -1.26583300000000   -3.84148600000000
O        -5.20128700000000    0.19178400000000   -1.42152800000000
H        -5.30713300000000   -0.15135500000000   -2.33450200000000
O        -3.81767100000000   -2.86582700000000    1.55984000000000
H        -3.66184900000000   -3.61435400000000    0.97105800000000
O         2.33912700000000    0.99316500000000   -4.45664300000000
H         2.55967600000000    1.92875600000000   -4.36020800000000
O         1.96631700000000    3.91989800000000   -2.80754300000000
H         2.00785700000000    4.83555700000000   -2.48995800000000
O        -1.53209100000000    5.06345600000000   -1.58002200000000
H        -0.76306600000000    5.61356700000000   -1.81332200000000
O        -2.40063500000000    4.81432000000000    0.80535000000000
H        -2.57073500000000    5.41586700000000    0.06058400000000
O         0.90102900000000    5.40094600000000   -1.06739300000000
H         0.98841200000000    5.85330500000000   -0.19940000000000
O         1.23443100000000    5.03505900000000    1.32867300000000
H         2.11941400000000    5.08507300000000    1.73603300000000
O         4.65129500000000    0.31647700000000    1.99370800000000
H         4.43369700000000   -0.00724200000000    2.89020300000000
O        -3.49580900000000   -2.62422700000000   -2.73564400000000
H        -3.26008700000000   -3.53497100000000   -2.49403400000000
