140
 energy: -311.639570019778 gnorm: 0.000312027960 xtb: 6.4.1 (a3dbbd7)
C        -3.48775600000000   -0.53200400000000   -1.52418300000000
C        -2.83943800000000    0.76092300000000   -2.21345900000000
C        -2.94931700000000    1.90721600000000   -1.16808100000000
C        -3.67605000000000   -0.08376900000000   -0.01879000000000
C        -2.84356200000000    1.14849800000000    0.12480700000000
C        -3.50980900000000   -1.13629100000000    1.10564800000000
C        -2.55840600000000   -2.32869500000000    0.80580300000000
C        -2.73576100000000   -1.91502700000000   -1.86844700000000
C        -2.38286600000000   -2.88339600000000   -0.63295300000000
C        -1.38057700000000   -1.87895400000000   -2.71498100000000
C        -1.42324500000000    0.60851400000000   -2.62436100000000
C        -1.01853900000000   -0.57505300000000   -3.43313800000000
C        -0.53409800000000    1.58308300000000   -2.67605100000000
C        -1.91703300000000    3.09957400000000   -1.24143300000000
C        -0.71127900000000    2.99068500000000   -2.24808700000000
C        -1.21126800000000    3.18376600000000    0.08860400000000
C        -2.95967100000000    1.91604400000000    1.39442900000000
C        -1.84960700000000    3.01433600000000    1.43448900000000
C        -2.90658900000000   -0.52959500000000    2.48066200000000
C        -2.69534400000000    1.02268200000000    2.65713100000000
C        -1.29017100000000   -1.96872100000000    1.50637000000000
C        -1.54104600000000   -1.14835700000000    2.57221100000000
C        -0.18467500000000   -2.73408300000000    1.40176700000000
C        -0.88711600000000   -3.39283300000000   -0.89680000000000
C        -0.32052800000000   -2.34153700000000   -1.77717100000000
C         0.04024000000000   -3.69248100000000    0.30598000000000
C         0.96316100000000   -2.13983300000000   -1.96385200000000
C         0.53175200000000   -0.32464000000000   -3.76335700000000
C         0.72827800000000    1.18409000000000   -3.38157800000000
C         1.54338800000000   -1.32205400000000   -3.08487300000000
C         1.78317400000000    1.46622500000000   -2.37146000000000
C         0.54129000000000    3.54237000000000   -1.45209000000000
C         0.09257200000000    3.37289500000000   -0.03596200000000
C         1.90685900000000    2.85920500000000   -1.81570200000000
C         1.08590500000000    3.55441800000000    1.05212000000000
C        -0.79148600000000    2.40481600000000    2.31420700000000
C        -1.22692000000000    1.32379300000000    2.94632400000000
C         0.55470300000000    3.06357200000000    2.44334400000000
C        -0.59109000000000   -1.00114600000000    3.70624800000000
C        -0.32858900000000    0.54710900000000    3.86900500000000
C         0.90362800000000   -2.78712400000000    2.39520900000000
C         0.85127100000000   -1.63968900000000    3.44490600000000
C         1.63971500000000   -3.55523800000000    0.10286600000000
C         2.07292100000000   -2.85774500000000   -1.24821100000000
C         2.16031700000000   -2.85480000000000    1.43329400000000
C         2.85797900000000   -0.76062500000000   -2.42498800000000
C         2.68757700000000    0.62605900000000   -1.90161100000000
C         3.18946500000000   -1.75764400000000   -1.23049200000000
C         2.90863300000000    2.65018800000000   -0.60350700000000
C         2.21162300000000    2.60302500000000    0.71393300000000
C         3.63722500000000    1.28432600000000   -0.91930200000000
C         1.64371100000000    2.03935000000000    2.93781900000000
C         1.05377900000000    0.71449200000000    3.30738400000000
C         1.65783300000000   -0.43197800000000    3.03905100000000
C         2.49057400000000    1.78390900000000    1.71238800000000
C         2.72593200000000   -1.49878300000000    1.19474200000000
C         3.19450600000000   -1.01086800000000    0.06038100000000
C         3.94405500000000    0.29390600000000    0.26342900000000
C         2.98987300000000   -0.60015500000000    2.37473700000000
C         3.53597600000000    0.72086100000000    1.71378100000000
O        -4.78153900000000   -0.61958800000000   -2.04234900000000
H        -4.80312700000000   -1.40367700000000   -2.62794700000000
O        -4.75925000000000   -1.70431900000000    1.37716700000000
H        -5.42375100000000   -1.13040500000000    0.94159400000000
O        -4.24922400000000    2.50582300000000    1.46933100000000
H        -4.22160800000000    3.13205000000000    2.21134100000000
O        -3.54479400000000    1.05463800000000   -3.39049500000000
H        -4.48936400000000    1.01011200000000   -3.15250600000000
O        -3.49485100000000    1.52256800000000    3.68879700000000
H        -3.79970800000000    0.76765100000000    4.21707500000000
O        -3.73458100000000   -0.92878400000000    3.54033900000000
H        -3.86002700000000   -1.88512700000000    3.47349100000000
O        -4.24341000000000    2.47815100000000   -1.32740300000000
H        -4.57372600000000    2.71916200000000   -0.44493000000000
O        -2.99247300000000   -3.40143700000000    1.62415000000000
H        -3.91223300000000   -3.59708800000000    1.38356900000000
O        -3.23853200000000   -3.99538300000000   -0.73348600000000
H        -2.67380500000000   -4.75899600000000   -0.97006700000000
O        -3.63413700000000   -2.61712300000000   -2.69193000000000
H        -3.93103900000000   -3.39789300000000   -2.17530400000000
O        -2.58119600000000    4.29490900000000   -1.53702000000000
H        -3.51645100000000    4.05529500000000   -1.70255300000000
O        -0.92706900000000    3.76497300000000   -3.39585000000000
H        -1.52348100000000    4.48507700000000   -3.11402300000000
O         0.67771200000000    4.92819500000000   -1.65649600000000
H         1.15549500000000    5.03779800000000   -2.49862100000000
O         2.52457800000000    3.67306300000000   -2.78339800000000
H         3.29186200000000    4.08478400000000   -2.33863800000000
O         3.83743800000000    3.69963600000000   -0.60306200000000
H         4.68358200000000    3.30575300000000   -0.89970100000000
O         4.68928800000000    1.18372900000000    2.36397100000000
H         4.45016400000000    1.38703900000000    3.27833800000000
O         3.17984900000000   -3.60295500000000    2.03555400000000
H         3.12449200000000   -4.50609100000000    1.67681000000000
O         4.42730500000000   -2.37273300000000   -1.46232000000000
H         4.89750600000000   -1.80631900000000   -2.10605900000000
O         4.84095900000000    1.62512700000000   -1.55372300000000
H         5.51694300000000    1.00806000000000   -1.20674700000000
O         5.32353700000000    0.00738500000000    0.23999400000000
H         5.67486200000000    0.25589000000000    1.11350500000000
O         2.16099500000000   -4.84886600000000    0.11408200000000
H         2.41770200000000   -5.03990900000000   -0.81477900000000
O         2.52082500000000   -3.89536300000000   -2.09463800000000
H         3.47946800000000   -3.74029600000000   -2.22274200000000
O         3.91450800000000   -0.77758300000000   -3.34056100000000
H         3.63604200000000   -1.39834400000000   -4.04630800000000
O         0.91791400000000    1.92245900000000   -4.56528500000000
H         0.52879100000000    2.80214500000000   -4.44311100000000
O         0.70655900000000   -0.47636800000000   -5.14054100000000
H         0.72074900000000    0.41890300000000   -5.52615100000000
O        -1.71867600000000   -0.56603200000000   -4.66053900000000
H        -2.49026600000000    0.02144900000000   -4.56415900000000
O         3.96995900000000   -1.10899800000000    3.23545000000000
H         3.87666000000000   -2.07221300000000    3.27059600000000
O         2.42974000000000    2.57176900000000    3.96961300000000
H         1.82262700000000    2.89118200000000    4.65336400000000
O         0.40908800000000    4.14031100000000    3.32822300000000
H         1.03715400000000    4.82512500000000    3.04184100000000
O         1.49573100000000    4.89472700000000    1.16110900000000
H         1.48190000000000    5.28474900000000    0.27332700000000
O        -2.37939800000000    4.20205300000000    1.96688000000000
H        -1.68000800000000    4.64119000000000    2.47007600000000
O        -1.45158900000000   -2.90023200000000   -3.69137200000000
H        -1.74865300000000   -2.46771400000000   -4.51415900000000
O        -1.14389800000000   -1.51164200000000    4.88281200000000
H        -0.38287300000000   -1.87101200000000    5.38450200000000
O         1.31620900000000   -2.12279600000000    4.68097500000000
H         1.37465300000000   -3.09120300000000    4.60446000000000
O        -0.21889400000000   -4.99187900000000    0.78476300000000
H        -0.11774800000000   -5.60594200000000    0.04258400000000
O        -0.42773400000000    0.95352000000000    5.19747500000000
H        -1.04635700000000    0.34012300000000    5.63181500000000
O        -5.04866500000000    0.32828400000000    0.07355300000000
H        -5.11122100000000    1.02821900000000    0.74678600000000
O         1.99327400000000   -2.22765100000000   -4.07141500000000
H         1.52757000000000   -1.99912300000000   -4.89682800000000
O        -0.97603800000000   -4.60561800000000   -1.62686000000000
H        -1.09090800000000   -4.37463700000000   -2.56763800000000
O         0.83385400000000   -4.00055700000000    3.11879900000000
H         0.45466300000000   -4.67996800000000    2.53464000000000
