144
 energy: -320.788773591112 gnorm: 0.000225329801 xtb: 6.4.1 (a3dbbd7)
C         3.94391200000000   -0.01510600000000    0.07035600000000
C         3.44597500000000    1.20840100000000   -0.83338900000000
C         2.99150200000000    0.59364400000000   -2.18164200000000
C         3.45049500000000   -1.28770200000000   -0.73892000000000
C         2.47568500000000   -0.74603800000000   -1.74150800000000
C         2.99833200000000   -2.58446500000000    0.01288200000000
C         2.53605700000000   -2.45970100000000    1.51534000000000
C         3.58050500000000    0.09826200000000    1.61774200000000
C         2.80647800000000   -1.11837300000000    2.28472000000000
C         2.70778900000000    1.36065800000000    2.12997900000000
C         2.32871900000000    1.99373700000000   -0.25266100000000
C         2.47098100000000    2.50589600000000    1.13684700000000
C         1.38871200000000    2.62891100000000   -0.93208200000000
C         1.93542400000000    1.39152500000000   -3.04173500000000
C         1.24155200000000    2.65245900000000   -2.40625500000000
C         0.75927700000000    0.48886300000000   -3.29130700000000
C         1.97815800000000   -1.66757400000000   -2.80098300000000
C         0.82887600000000   -0.97325700000000   -3.60456900000000
C         1.77035600000000   -3.29751900000000   -0.70988200000000
C         1.32886100000000   -2.93565400000000   -2.17535300000000
C         1.05609600000000   -2.68636200000000    1.47503500000000
C         0.62595600000000   -3.03870200000000    0.23213900000000
C         0.18742600000000   -2.70826200000000    2.67626200000000
C         1.47295300000000   -0.54784300000000    2.70758000000000
C         1.42577600000000    0.76637300000000    2.62082300000000
C         0.47665000000000   -1.35880000000000    3.46443100000000
C         0.43863900000000    1.65603500000000    3.28258800000000
C         1.17877900000000    3.40716600000000    1.37429400000000
C         0.67960700000000    3.66819000000000   -0.12258500000000
C         0.07507600000000    2.84954600000000    2.33554600000000
C        -0.84377300000000    3.63885500000000   -0.40506400000000
C        -0.26824300000000    2.57227400000000   -2.84896000000000
C        -0.40229500000000    1.10244800000000   -3.13333400000000
C        -1.32428300000000    3.23409100000000   -1.86432500000000
C        -1.75423700000000    0.52078600000000   -3.32253400000000
C        -0.41512300000000   -1.56788900000000   -3.00164700000000
C        -0.15284800000000   -2.59031300000000   -2.21549300000000
C        -1.77139100000000   -1.05296200000000   -3.33231200000000
C        -0.68591700000000   -3.25687100000000   -0.06123800000000
C        -1.16866600000000   -3.38107900000000   -1.45850100000000
C        -1.34641900000000   -2.68174200000000    2.31509100000000
C        -1.76458100000000   -3.29382300000000    0.95037700000000
C        -0.90192900000000   -0.63058900000000    3.57574800000000
C        -0.93115300000000    0.94446500000000    3.63357500000000
C        -1.65852800000000   -1.22613400000000    2.42116600000000
C        -1.14046900000000    2.31017700000000    1.64958100000000
C        -1.56882200000000    2.65965200000000    0.46263100000000
C        -1.99283200000000    1.61822800000000    2.65648100000000
C        -2.62040900000000    2.30323400000000   -1.62546200000000
C        -2.43894300000000    0.88578000000000   -2.03471600000000
C        -2.93367800000000    2.38581400000000   -0.09257100000000
C        -2.83146100000000   -1.42946800000000   -2.22384000000000
C        -2.62743100000000   -2.76550300000000   -1.41097200000000
C        -3.02811800000000   -2.67947500000000    0.16958200000000
C        -2.89759600000000   -0.17568700000000   -1.39221100000000
C        -2.60981200000000   -0.64890000000000    1.73102800000000
C        -3.08209100000000    0.73778700000000    2.01398200000000
C        -3.69799200000000    1.20471100000000    0.61359000000000
C        -3.53500600000000   -1.30904900000000    0.75297800000000
C        -3.81717100000000   -0.13488900000000   -0.23443400000000
O         5.33702800000000   -0.00480800000000   -0.05288700000000
H         5.71372300000000    0.04470900000000    0.84482700000000
O         4.08287200000000   -3.47694300000000    0.02956700000000
H         4.77444700000000   -3.05682900000000   -0.53774800000000
O         3.05204700000000   -2.01447100000000   -3.66574900000000
H         2.66589700000000   -2.53140200000000   -4.39056600000000
O         4.50215300000000    2.11600400000000   -1.00625100000000
H         5.29612200000000    1.56863900000000   -1.15835300000000
O         1.59290600000000   -4.00362300000000   -3.03939700000000
H         1.11981400000000   -4.77384500000000   -2.68868100000000
O         1.98529000000000   -4.68517000000000   -0.66962000000000
H         2.93311800000000   -4.83087600000000   -0.50473300000000
O         4.15681500000000    0.46302800000000   -2.98887800000000
H         4.04849800000000   -0.33184600000000   -3.53870300000000
O         3.07906600000000   -3.51666500000000    2.27469400000000
H         3.90901300000000   -3.79015500000000    1.84902300000000
O         2.51700000000000    1.81438200000000   -4.24277000000000
H         3.46454500000000    1.57135100000000   -4.18875500000000
O         1.81860700000000    3.83479100000000   -2.89089500000000
H         2.19182700000000    3.59630300000000   -3.76313700000000
O         3.35611200000000    1.90875000000000    3.25700100000000
H         3.88024900000000    2.66288100000000    2.91824500000000
O         3.59436600000000    3.36139000000000    1.20984700000000
H         4.15968600000000    3.18554800000000    0.43360300000000
O         1.03407500000000   -1.62327100000000    4.72254600000000
H         0.31876400000000   -1.95919700000000    5.28729600000000
O        -1.49938300000000   -1.14034500000000    4.75694800000000
H        -1.74667700000000   -0.35672800000000    5.29018600000000
O        -1.29140400000000    1.29402800000000    4.94261100000000
H        -0.53025100000000    1.76627800000000    5.32891000000000
O         0.98591600000000    2.11818000000000    4.49283600000000
H         1.94563500000000    2.24053600000000    4.35506000000000
O        -0.41977000000000    3.18180900000000   -4.11226000000000
H        -0.46421500000000    4.14225900000000   -3.96682200000000
O        -1.75502000000000    4.41516900000000   -2.47807900000000
H        -2.62392400000000    4.21770700000000   -2.88240600000000
O         4.82277900000000    0.22184600000000    2.25721500000000
H         4.73175500000000   -0.18609800000000    3.13756500000000
O         3.52161100000000   -1.42427600000000    3.46419800000000
H         2.89182300000000   -1.73461000000000    4.13476100000000
O        -3.68613100000000    2.83049400000000   -2.37247800000000
H        -4.24501200000000    3.32342900000000   -1.74201500000000
O        -5.11634300000000   -0.26399000000000   -0.75595200000000
H        -5.66495100000000   -0.59291000000000   -0.01768600000000
O         0.96599200000000   -1.26334900000000   -4.97042100000000
H         0.08294400000000   -1.25531400000000   -5.36481600000000
O        -1.17649200000000   -4.69464100000000   -1.94655900000000
H        -2.10786000000000   -4.92809800000000   -2.10958500000000
O        -2.10286400000000   -1.54777300000000   -4.59210300000000
H        -2.92686500000000   -1.11718500000000   -4.86534300000000
O        -2.39390400000000    1.00905800000000   -4.46908000000000
H        -2.00027700000000    1.86638000000000   -4.69149500000000
O        -3.46361000000000   -3.73035600000000   -1.97561800000000
H        -4.03760600000000   -3.26716600000000   -2.61930900000000
O        -4.07141900000000   -1.53598500000000   -2.90870500000000
H        -4.75487200000000   -1.11222300000000   -2.35410800000000
O        -3.70320900000000    3.56738000000000    0.06797600000000
H        -4.49762100000000    3.30621200000000    0.57666000000000
O        -4.99697500000000    1.66407100000000    0.86129800000000
H        -5.26013300000000    1.24285400000000    1.70971200000000
O        -4.76099600000000   -1.50802700000000    1.42685600000000
H        -4.92313700000000   -2.46940600000000    1.43932100000000
O         1.19612000000000    4.93131200000000   -0.46403800000000
H         1.31844000000000    4.96835400000000   -1.42543300000000
O        -4.09523500000000   -3.56298000000000    0.35085800000000
H        -3.69798500000000   -4.45041300000000    0.45776400000000
O         1.59351400000000    4.61140600000000    1.94312500000000
H         1.77031300000000    5.22212900000000    1.20442200000000
O        -0.39009700000000    3.89800200000000    3.16070400000000
H         0.23677500000000    4.63839700000000    3.03580800000000
O         0.45844300000000   -3.82296300000000    3.48034400000000
H         1.39184200000000   -4.05960700000000    3.36563400000000
O         4.60847700000000   -1.70308400000000   -1.48381300000000
H         4.30848800000000   -2.04423400000000   -2.34664300000000
O        -4.14705500000000    0.63648100000000    2.93492700000000
H        -4.03230000000000    1.36733000000000    3.56938000000000
O        -2.71401500000000    2.59956800000000    3.37124800000000
H        -2.08537700000000    3.29758700000000    3.62837600000000
O        -2.08090900000000   -3.39325400000000    3.28410000000000
H        -2.01939700000000   -2.91210100000000    4.12380000000000
O        -1.28572000000000    4.92963000000000   -0.08692600000000
H        -2.25369700000000    4.94419400000000   -0.11724300000000
O        -2.04342800000000   -4.66865000000000    1.14888800000000
H        -2.05955000000000   -4.81948100000000    2.10942700000000
