144
 energy: -320.795833469354 gnorm: 0.000143411274 xtb: 6.4.1 (a3dbbd7)
C        -3.60635884629431    0.93963174294181   -1.36748050342213
C        -3.00704269899959    2.40099262859208   -0.92948537416041
C        -2.79070007207705    2.27274248026098    0.61051577564594
C        -3.78868727701971    0.16255297095815   -0.00903166638785
C        -2.86419764611345    0.83094103404418    0.94498426857104
C        -3.69213983665520   -1.39172789550631   -0.00685656123347
C        -2.89614231019405   -2.11116649520287   -1.16497338904276
C        -2.79483472480294    0.20804991096313   -2.46363217515766
C        -2.70849558721913   -1.37221937138378   -2.50992168434756
C        -1.37136744764778    0.63598799920422   -2.53562508371880
C        -1.75702862691516    2.95891729804517   -1.72331174469682
C        -0.94597104561641    1.90491451610263   -2.36741584002079
C        -0.60489093605649    3.73858380543826   -0.94498501240870
C        -1.46510457647704    2.68646648141323    1.12638985398433
C        -0.48541241180570    3.27809266861434    0.46990776137881
C        -1.20654711668056    2.52396093645084    2.59368772358366
C        -2.89900926395119    0.49205797125071    2.38849125744727
C        -1.69960552704085    1.16824285125404    3.17573126979417
C        -2.98790986898308   -1.96887733383835    1.31504575257457
C        -2.67391203811658   -1.04787512823926    2.55384537291230
C        -1.61571277526012   -2.57033165106761   -0.52000676343881
C        -1.68675321248725   -2.55200040237422    0.80006365222818
C        -0.68146465121081   -3.41963478447526   -1.31858713288535
C        -1.27292276257765   -1.63558692403640   -3.21871406744938
C        -0.60407844977758   -0.30614073395556   -3.14232236924593
C        -0.26246486738598   -2.70079661579986   -2.63475444614247
C         0.77743587735616   -0.07549070898603   -3.61298883816164
C         0.34879997125277    2.43179602044629   -2.88375089447240
C         0.75216506371245    3.38701843678500   -1.70590201850838
C         1.39836133553383    1.36079648085430   -3.40266703659785
C         1.69323708119835    2.71158224727669   -0.76169387767721
C         0.69362908463737    3.59627206637859    1.37339054919366
C         0.35628030362905    2.78470270420070    2.68317011581633
C         2.02856830898445    3.25869110788837    0.61228731380911
C         1.11092337602065    1.50619030448303    2.73345543198364
C        -0.68626810422764    0.06428862027878    3.15965291118706
C        -1.18696835343493   -1.11816431675560    2.85972885073943
C         0.67697873173572    0.38405747423459    3.63892008316761
C        -0.72907548065347   -3.27860003040196    1.69366335474095
C        -0.39266470123505   -2.37615715213617    2.95493860988600
C         0.66330592140071   -3.79464103663285   -0.56193107150434
C         0.63957420466179   -3.54056041037124    0.98527271347620
C         1.05862036764381   -2.09367459513826   -2.24541152075386
C         1.57485116082383   -0.97020800693675   -2.69529173082930
C         1.81627738118690   -3.03369778441097   -1.37135173910995
C         2.64435943768860    1.14167914128351   -2.45258132130088
C         2.45038338984972    1.67379395599434   -1.08758236962748
C         2.92751973067140   -0.40217409582769   -2.43344523073280
C         2.96108898148969    2.14517634166695    1.19655016553683
C         2.20672842657985    1.21327982893786    2.06071530267733
C         3.52894141017337    1.41091301824020   -0.07445560542158
C         1.74207472625019   -0.74809495704982    3.43866895667987
C         1.16339826962442   -2.10379150234159    2.88965098041074
C         1.44745893274505   -2.36529248459894    1.44166806802895
C         2.85579516398368   -0.06031485887042    2.51297196022633
C         2.91076213758969   -2.30496197090134   -0.55953311607647
C         3.66773238053640   -1.03317176292024   -1.18479751748441
C         3.98323798196457   -0.07980684205106    0.08951658471430
C         2.40699928011289   -1.80537745270408    0.74630244315549
C         3.40780880563390   -0.87717354641943    1.33027697596219
O        -4.88057478051064    1.14829890977837   -1.91194789324048
H        -5.09763925961763    2.09022114400083   -1.74221238331510
O        -5.01610791430219   -1.86725714919905   -0.03415727697528
H        -5.05781777963511   -2.52795349327153   -0.75380877846026
O        -4.11751809976314    0.88549683071501    2.97232404578925
H        -4.28365955733453    0.25358956634255    3.69442398185119
O        -4.03321648274235    3.33274566674072   -1.13921244194109
H        -4.35688056758551    3.56504221992581   -0.23759274297430
O        -3.42027470067471   -1.45745954976164    3.66241250826567
H        -3.72421942647067   -2.36530806844383    3.47063380502244
O        -3.77078140615988   -3.03668434663495    1.78994272416362
H        -4.62881926052178   -2.97649749504589    1.32440027431223
O        -3.79844057082111    3.03390425855177    1.27813916012035
H        -4.32955744194323    2.42234942761303    1.81781302715754
O        -3.66041051180017   -3.27854551646015   -1.41864224652567
H        -3.07634695502167   -3.95798722760314   -1.79471011534644
O        -3.70329466488273   -1.85388290535855   -3.35369384518007
H        -3.76325860426662   -1.21288152278405   -4.08664582553422
O        -3.31678874276682    0.59652018256062   -3.72017758973850
H        -4.21416463398380    0.94362876119625   -3.53646355079907
O        -0.84553805820414    5.11050308460217   -0.98669996151832
H        -0.05410746691038    5.51359087300218   -1.39762398789622
O        -2.22576960538050    3.82123832104486   -2.73987924289127
H        -2.72418489859739    4.53395493499233   -2.31168190401020
O         2.75867591327888    4.45083936896675    0.47200018042624
H         3.63367057473933    4.30210568557017    0.86409303217004
O         0.67535453195732    4.95319467935570    1.72882147010535
H         1.42578041666438    5.36697076571375    1.25820657145542
O        -2.04497132249001    1.35590776519213    4.52752978814298
H        -2.50985023332288    2.20665362286536    4.58326589750759
O        -1.89336909707877    3.52523900004214    3.31233654084433
H        -1.81501744563839    4.35778496678284    2.83145959279475
O         0.68105351900274    3.51353579216309    3.82645522892775
H         0.66541354578909    4.45316864038342    3.57244193083937
O         3.99979752901987    2.75423584321588    1.92212633796499
H         4.32561819371845    2.11234743361399    2.57342297239715
O        -1.38207213451267   -4.59737294524465   -1.64227943605369
H        -0.81815645445331   -5.34591710302592   -1.36344617854693
O        -1.27383338006825   -4.50508526439393    2.09046029194444
H        -1.57501380421665   -4.39204145119337    3.01083846272035
O         0.84155083415753   -5.17476238476024   -0.72379910128630
H         1.54362374818692   -5.28973980666682   -1.39624641464155
O         1.22630231734524   -4.66586524884226    1.61120636319515
H         0.53854666662081   -5.35336285759586    1.63970655815810
O         3.96460888537901    0.28333917235845    3.32193556317588
H         3.76783413011718   -0.12121098003212    4.19820371767822
O         2.34828924762494   -1.00858167774543    4.67026798371554
H         1.82574294376991   -0.53402880640536    5.34589990689643
O         0.64793916975154    0.73785587375524    4.99923604052215
H        -0.21043554951717    1.16244804646941    5.17898507726357
O        -0.71846349240207   -3.06497060398184    4.12682886778789
H         0.13533385901927   -3.33293625164147    4.52619045120942
O         4.44160204651856   -1.71223957763563    1.81295142708635
H         4.95198394639576   -1.17850659501864    2.44723477684476
O         4.63771964959115    2.16449052473297   -0.53353143621515
H         5.42749737625558    1.78542393252448   -0.10436167788309
O         5.37566663438113   -0.01918437383899    0.27152242099189
H         5.76825216166986   -0.66062859377018   -0.35316109583134
O         3.75293569408023    1.77793224450119   -3.03908176838113
H         4.28473858230916    2.18863992426147   -2.33258243224464
O         1.91583449830614    1.81900569071062   -4.60663305806064
H         1.51512517375432    1.30007075000904   -5.32250966267230
O         1.32398470772100    4.55965327195431   -2.20303457553929
H         1.26095434402858    4.49605647890792   -3.17863614118645
O         0.91120233849805   -0.43718854034152   -4.96729479226274
H         0.17006527477236   -1.02499834988180   -5.19375351879812
O         4.91386726577906   -1.48915128559426   -1.62766925786191
H         4.89364069480635   -1.42906145720690   -2.60821881650385
O         2.44448999339459   -3.99165635055884   -2.20836910691348
H         3.34041811466759   -4.12150820357876   -1.84593750710547
O        -1.49487166706348   -1.92755089860341   -4.57603578149425
H        -1.73708785006744   -2.86124366881751   -4.65357971182160
O        -5.07363249423642    0.53154789619395    0.46999493182210
H        -5.69226129989153   -0.18164816078361    0.24260067685533
O         1.77754432225781   -3.10588843608435    3.67005609088101
H         1.87243753398187   -3.90089926353241    3.10919650143395
O         3.87829046239829   -3.30318401274027   -0.30912762530935
H         4.43106367139425   -3.01275437428618    0.43588513145860
O        -0.05308191485166   -3.66546956587714   -3.64066713252349
H         0.84109406849263   -4.02193284725095   -3.54979717650282
O         3.70965697303080   -0.67951085253361   -3.57778848948971
H         3.94234122517599    0.18832304414625   -3.96890370713625
O         0.08917541977528    3.25383477947404   -4.00409291567293
H        -0.81389367762597    3.61094949594687   -3.90968836510927
