152
 energy: -339.024311938030 gnorm: 0.000306244064 xtb: 6.4.1 (a3dbbd7)
C        -3.68489700000000    1.28119700000000   -0.24414600000000
C        -2.98895700000000    2.03588500000000    0.97541900000000
C        -2.87864100000000    1.00057700000000    2.12196100000000
C        -3.67691000000000   -0.23612200000000    0.21890900000000
C        -2.70057500000000   -0.27163000000000    1.36778700000000
C        -3.52927900000000   -1.35467100000000   -0.84084500000000
C        -2.78818200000000   -1.02262800000000   -2.17316700000000
C        -3.13799900000000    1.65898200000000   -1.70387600000000
C        -2.78983300000000    0.43464100000000   -2.71347700000000
C        -1.87191000000000    2.60098900000000   -1.81770900000000
C        -1.64600200000000    2.56769800000000    0.64834800000000
C        -1.46045000000000    3.38753800000000   -0.57538400000000
C        -0.65187600000000    2.68792100000000    1.50840800000000
C        -1.84031100000000    1.24452900000000    3.27503200000000
C        -0.72483000000000    2.32750700000000    2.94394500000000
C        -1.03865400000000   -0.05542300000000    3.71057500000000
C        -2.66208100000000   -1.51366500000000    2.17122400000000
C        -1.56417900000000   -1.48229700000000    3.32357800000000
C        -2.79285300000000   -2.67749900000000   -0.25812300000000
C        -2.27761900000000   -2.69748800000000    1.23007500000000
C        -1.45511400000000   -1.68822700000000   -2.06272100000000
C        -1.65477900000000   -2.96604200000000   -1.34046000000000
C        -0.56391000000000   -1.74676500000000   -3.24470400000000
C        -1.36746400000000    0.79091700000000   -3.35692200000000
C        -0.79344700000000    1.71437300000000   -2.33436000000000
C        -0.35663900000000   -0.30762500000000   -3.85515600000000
C         0.47426000000000    2.02351700000000   -2.19943800000000
C         0.06043000000000    3.89506500000000   -0.48239500000000
C         0.41015000000000    3.65076500000000    1.03709700000000
C         0.98844000000000    3.26557600000000   -1.55533900000000
C         1.86750000000000    3.25994100000000    1.41065800000000
C         0.63171500000000    1.71847300000000    3.36034200000000
C         0.34471000000000    0.24425800000000    3.21652400000000
C         1.92436000000000    2.14695000000000    2.56038300000000
C         1.24061700000000   -0.66407000000000    2.90601900000000
C        -0.42843400000000   -2.49891200000000    2.82105700000000
C        -0.78664100000000   -2.68917600000000    1.38676700000000
C         1.05602400000000   -2.12194400000000    3.00626500000000
C        -0.31748000000000   -3.56647200000000   -0.84492800000000
C         0.09144000000000   -3.01703700000000    0.47307700000000
C         0.86507200000000   -2.27165400000000   -2.83972400000000
C         0.95990500000000   -3.37947300000000   -1.75119600000000
C         1.17995800000000    0.03434600000000   -3.53615200000000
C         1.53939800000000    1.45662100000000   -3.06769100000000
C         1.54566500000000   -0.98987900000000   -2.52125400000000
C         2.47559600000000    2.92644100000000   -1.21487300000000
C         2.80819500000000    2.65132300000000    0.27894100000000
C         2.86300200000000    1.68680900000000   -2.20998900000000
C         2.51444200000000    0.96077700000000    1.85915700000000
C         2.65564100000000   -0.31557300000000    2.58687900000000
C         2.92240400000000    1.19850400000000    0.63539300000000
C         2.15824200000000   -2.71699500000000    1.99335000000000
C         1.52037600000000   -3.37086100000000    0.72236000000000
C         2.19839200000000   -3.22400800000000   -0.67404900000000
C         3.24758900000000   -1.55216200000000    1.81365700000000
C         2.51320400000000   -0.84065500000000   -1.65568100000000
C         3.44210700000000    0.34149600000000   -1.60103900000000
C         3.84068100000000    0.29915300000000   -0.10029300000000
C         3.11391800000000   -1.98088400000000   -0.89100900000000
C         3.80371200000000   -1.25711300000000    0.34057100000000
O        -5.03371900000000    1.68192900000000   -0.22608600000000
H        -5.05960500000000    2.51667700000000    0.28959200000000
O        -4.80963300000000   -1.72937800000000   -1.26835100000000
H        -5.42533700000000   -1.52245100000000   -0.54221800000000
O        -3.92161900000000   -1.72308000000000    2.76206300000000
H        -3.88044400000000   -2.58403400000000    3.20664400000000
O        -3.79421600000000    3.12600300000000    1.37525400000000
H        -4.23153900000000    2.85466500000000    2.20209700000000
O        -2.73725000000000   -3.87396100000000    1.87412900000000
H        -3.30844100000000   -4.33511500000000    1.23469400000000
O        -3.72255800000000   -3.71733300000000   -0.32722700000000
H        -4.34101400000000   -3.48755200000000   -1.04770900000000
O        -4.17563700000000    1.03248900000000    2.74589300000000
H        -4.15188800000000    0.43050500000000    3.50584300000000
O        -3.39651700000000   -1.83204000000000   -3.16491700000000
H        -3.92114400000000   -1.24751700000000   -3.74224900000000
O        -0.52642700000000   -4.95490200000000   -0.68581800000000
H        -1.34832200000000   -5.15424400000000   -1.17919100000000
O        -1.08598500000000   -2.62371600000000   -4.22046500000000
H        -1.05462400000000   -2.13816500000000   -5.06692600000000
O        -2.55110100000000    1.68836300000000    4.39286800000000
H        -2.40273700000000    2.65146600000000    4.45829400000000
O        -3.73747700000000    0.46982300000000   -3.73967000000000
H        -4.17828500000000    1.34329100000000   -3.68687500000000
O        -4.16081500000000    2.39315600000000   -2.32873500000000
H        -4.97762400000000    2.22052800000000   -1.80944700000000
O        -0.99904100000000    3.48995900000000    3.68348400000000
H        -0.37563300000000    3.48879000000000    4.43527800000000
O         0.81410900000000    2.03941200000000    4.72584200000000
H         1.73154600000000    2.39089100000000    4.78955300000000
O         2.87357300000000    2.60009600000000    3.50872500000000
H         3.44902600000000    1.84541100000000    3.72804000000000
O         1.48655600000000   -2.73398400000000   -4.02094700000000
H         1.40589200000000   -3.70283200000000   -4.02030900000000
O         1.17086900000000   -4.57220200000000   -2.44713100000000
H         0.74552300000000   -5.27199200000000   -1.90940200000000
O         3.37533000000000   -0.06155500000000    3.77505900000000
H         3.33043500000000   -0.85907800000000    4.32268500000000
O         4.37772300000000   -1.93121200000000    2.56408000000000
H         4.21220500000000   -2.84514000000000    2.87563700000000
O         5.14152800000000   -1.66618100000000    0.30407700000000
H         5.39707300000000   -1.86027900000000    1.23089800000000
O         5.13810500000000    0.80043000000000    0.09259100000000
H         5.73580600000000    0.04027700000000   -0.05743600000000
O         4.60074000000000   -0.00237100000000   -2.33841600000000
H         4.72879700000000    0.70720400000000   -2.99906600000000
O         3.84411600000000    2.16838700000000   -3.07956100000000
H         4.04316700000000    3.08663800000000   -2.78829500000000
O         0.08831100000000    5.26466200000000   -0.73872300000000
H        -0.07115800000000    5.71431300000000    0.11191500000000
O         0.08841500000000    4.86406500000000    1.69512800000000
H         0.91562600000000    5.20299000000000    2.08449600000000
O        -2.32803200000000    4.49965600000000   -0.53092100000000
H        -2.32382700000000    4.86336200000000    0.36308500000000
O        -2.09011100000000    3.55216000000000   -2.84911000000000
H        -2.64741600000000    4.25142900000000   -2.47045800000000
O         2.45408700000000    4.43170800000000    1.89009700000000
H         3.40782800000000    4.37059400000000    1.69802300000000
O         4.07820100000000    3.21995800000000    0.54465600000000
H         4.76428000000000    2.58840100000000    0.26807900000000
O        -0.49006700000000   -0.45652700000000   -5.23718300000000
H        -0.81532800000000    0.39154200000000   -5.58407700000000
O         3.27295000000000    4.01919700000000   -1.57547200000000
H         2.71575100000000    4.59834300000000   -2.13051600000000
O         1.60192500000000    2.27554400000000   -4.20515200000000
H         2.07148800000000    1.76459000000000   -4.88336200000000
O         2.82278800000000   -3.73669700000000    2.68853900000000
H         2.38198900000000   -4.56918600000000    2.40656400000000
O         1.45111800000000   -4.76345700000000    1.01715600000000
H         1.98719400000000   -5.22500200000000    0.34783600000000
O        -0.57059000000000   -3.71907300000000    3.50672200000000
H        -1.41864700000000   -4.10935300000000    3.23989500000000
O        -4.96555900000000   -0.50791800000000    0.75471500000000
H        -5.07584700000000    0.00334300000000    1.57629300000000
O         1.94168800000000   -0.16868400000000   -4.70003000000000
H         1.88959900000000   -1.11242500000000   -4.92503500000000
O        -2.18706600000000   -2.05890600000000    4.43107000000000
H        -1.76652000000000   -1.69975500000000    5.22655700000000
O        -1.61982200000000    1.55686700000000   -4.51897800000000
H        -1.91844100000000    2.44211700000000   -4.24851700000000
O        -0.96219900000000   -0.07765300000000    5.12251500000000
H        -0.46067500000000    0.69795200000000    5.41568900000000
O         1.46490200000000   -2.45610100000000    4.31203600000000
H         1.00619100000000   -3.28148600000000    4.53708700000000
O         1.08311400000000    4.21404300000000   -2.60603500000000
H         0.19692700000000    4.39553800000000   -2.94432100000000
O         2.99266500000000   -4.37061600000000   -0.81083500000000
H         3.69146500000000   -4.15841200000000   -1.45303600000000
O         4.13498200000000   -2.49389600000000   -1.72813100000000
H         4.64944700000000   -1.74325500000000   -2.07581700000000
O        -2.20051700000000   -3.95614300000000   -2.20504300000000
H        -2.12065300000000   -3.65105200000000   -3.12652200000000
