152
 energy: -339.019535333438 gnorm: 0.000317974977 xtb: 6.4.1 (a3dbbd7)
C         2.86080500000000    1.58843600000000   -2.09334900000000
C         3.49208300000000    0.45207900000000   -1.16674900000000
C         3.53362000000000    1.00479200000000    0.28196000000000
C         2.31618100000000    2.63853700000000   -1.04270900000000
C         2.32128200000000    1.89363400000000    0.26369000000000
C         1.06751100000000    3.50556200000000   -1.37095200000000
C         0.01792400000000    2.89741400000000   -2.33593400000000
C         1.88916200000000    1.09237800000000   -3.25918700000000
C         0.44067300000000    1.76213700000000   -3.30905600000000
C         1.54502800000000   -0.46011900000000   -3.38405100000000
C         2.65318900000000   -0.76459000000000   -1.13022700000000
C         2.33673700000000   -1.37954200000000   -2.45119200000000
C         3.12636500000000   -1.88185700000000   -0.25600000000000
C         3.60456900000000   -0.00152300000000    1.50438600000000
C         3.33294800000000   -1.57912900000000    1.25184300000000
C         2.57153900000000    0.40588700000000    2.64629700000000
C         2.07232800000000    2.73484900000000    1.45871300000000
C         1.99208700000000    1.85909600000000    2.77017800000000
C         0.22181000000000    3.97464000000000   -0.06981300000000
C         0.69301500000000    3.46779000000000    1.33687500000000
C        -1.13896500000000    2.52412300000000   -1.45593300000000
C        -1.29145100000000    3.56642400000000   -0.41174900000000
C        -2.07558400000000    1.65558000000000   -1.76619800000000
C        -0.50887200000000    0.60110500000000   -3.13275400000000
C         0.08051700000000   -0.56725700000000   -3.14516500000000
C        -1.96314300000000    0.82653800000000   -3.00830800000000
C        -0.61105300000000   -1.86665400000000   -3.28022900000000
C         1.67515800000000   -2.77078600000000   -2.13970000000000
C         2.22444200000000   -3.11103000000000   -0.64137000000000
C         0.12070100000000   -2.89691500000000   -2.35550400000000
C         1.11626200000000   -3.51970700000000    0.37175000000000
C         2.18521800000000   -1.97190500000000    2.23164700000000
C         1.52474500000000   -0.66177100000000    2.51390200000000
C         1.27738000000000   -3.17887900000000    1.89433100000000
C         0.33003300000000   -0.59500700000000    3.04426200000000
C         0.45104000000000    1.91354000000000    3.18976100000000
C        -0.22338600000000    2.47210500000000    1.98401200000000
C        -0.21154500000000    0.62466200000000    3.70665600000000
C        -2.23695300000000    3.08944800000000    0.71008600000000
C        -1.50557300000000    2.32105800000000    1.75981900000000
C        -3.41434100000000    1.51022300000000   -1.14198300000000
C        -3.44974600000000    2.10593900000000    0.31763900000000
C        -2.88501400000000   -0.41836300000000   -2.78184300000000
C        -2.16297700000000   -1.85029900000000   -2.81592900000000
C        -3.79251300000000   -0.02093900000000   -1.47910400000000
C        -0.70124200000000   -2.73708800000000   -1.11882600000000
C        -0.24940300000000   -3.00619000000000    0.07726300000000
C        -2.15724300000000   -2.69564700000000   -1.48077000000000
C        -0.26408200000000   -3.06655500000000    2.47427900000000
C        -0.56632100000000   -1.75423700000000    3.29354100000000
C        -1.15350100000000   -3.32184200000000    1.21459500000000
C        -1.78919500000000    0.45750600000000    3.52982700000000
C        -2.46631700000000    1.51460500000000    2.57934600000000
C        -3.43791900000000    1.01486600000000    1.45850500000000
C        -1.96695400000000   -1.06274600000000    3.10021400000000
C        -3.73171100000000   -0.92337100000000   -0.22151700000000
C        -3.14580000000000   -2.36972600000000   -0.32534900000000
C        -2.50533400000000   -2.58874400000000    1.13018200000000
C        -3.01161100000000   -0.30595000000000    0.94265000000000
C        -2.40471100000000   -1.20772900000000    1.69288800000000
O         3.93702800000000    2.22336400000000   -2.73639300000000
H         4.67881900000000    1.58034000000000   -2.71610000000000
O         1.51623700000000    4.66617000000000   -2.03266200000000
H         2.45147800000000    4.78712600000000   -1.77791200000000
O         3.11398200000000    3.66629900000000    1.59316600000000
H         3.18710100000000    3.86393300000000    2.54417000000000
O         4.81270000000000    0.21083000000000   -1.62069400000000
H         5.40464400000000    0.65918900000000   -0.98554800000000
O         0.75747100000000    4.56447900000000    2.22877300000000
H         0.62400100000000    5.36961500000000    1.69719900000000
O         0.27617100000000    5.37075200000000   -0.02034100000000
H         0.66728300000000    5.66978600000000   -0.86642500000000
O         4.71164600000000    1.80663200000000    0.35942800000000
H         5.13362400000000    1.62634300000000    1.22317000000000
O        -0.52561000000000    3.95864600000000   -3.10869100000000
H         0.15528900000000    4.27795000000000   -3.71830400000000
O         0.24531200000000    2.27052100000000   -4.61189200000000
H         0.97588700000000    1.92127200000000   -5.15927000000000
O         2.51510000000000    1.40543300000000   -4.47130900000000
H         3.23365300000000    2.04006000000000   -4.26616200000000
O         4.89311300000000    0.10267800000000    2.03131500000000
H         5.28122400000000   -0.80104900000000    1.98833400000000
O         4.48625200000000   -2.28119400000000    1.63186900000000
H         4.28170700000000   -2.72340600000000    2.47934000000000
O         2.84507900000000   -2.32440200000000    3.46188400000000
H         2.24854700000000   -2.90830900000000    3.95665100000000
O         1.88772500000000   -4.27126900000000    2.51941700000000
H         1.51406400000000   -5.06493200000000    2.09435600000000
O        -0.52108400000000   -2.24203300000000   -4.63077100000000
H        -1.35411600000000   -2.72450900000000   -4.81805900000000
O        -0.14180100000000   -4.19186700000000   -2.85914100000000
H         0.66482200000000   -4.50672600000000   -3.29709700000000
O        -2.80422600000000   -2.64013700000000   -3.77844400000000
H        -3.60868900000000   -2.16719900000000   -4.05790300000000
O        -3.79385000000000   -0.46630400000000   -3.85078700000000
H        -3.72949500000000    0.37908900000000   -4.32779800000000
O         0.98712200000000   -4.93119300000000    0.29621700000000
H         1.75248800000000   -5.26348500000000   -0.20445100000000
O        -2.44985800000000    1.54123700000000   -4.12781000000000
H        -1.77994500000000    2.19303200000000   -4.38690200000000
O         1.82992400000000   -0.85578100000000   -4.71059700000000
H         1.10811400000000   -1.43649700000000   -5.01354700000000
O         2.22164000000000   -3.71393700000000   -3.02129300000000
H         3.15085700000000   -3.47311900000000   -3.17319400000000
O         3.57791400000000   -1.63057400000000   -3.12096900000000
H         3.42825500000000   -1.37432300000000   -4.05646500000000
O         3.06539100000000   -4.22842400000000   -0.75764100000000
H         3.98286700000000   -3.90225500000000   -0.65159700000000
O        -0.41330500000000   -2.05632200000000    4.65424000000000
H        -1.27355000000000   -2.38740500000000    4.96541000000000
O        -2.89679700000000   -1.65390300000000    3.96501400000000
H        -3.33441900000000   -2.37881000000000    3.48220600000000
O        -4.73024600000000    0.86775900000000    1.98168400000000
H        -4.81145000000000    1.54330900000000    2.68143500000000
O        -3.43025700000000   -3.31022100000000    1.90978200000000
H        -4.06034600000000   -3.70296200000000    1.26597100000000
O        -3.23097400000000    2.41103500000000    3.35318100000000
H        -3.10592600000000    2.15174500000000    4.28427800000000
O        -2.38024100000000    0.63250600000000    4.78214100000000
H        -1.75658900000000    0.25378400000000    5.42992800000000
O        -4.20853000000000   -3.27250000000000   -0.44424900000000
H        -5.02928000000000   -2.75170100000000   -0.48920900000000
O        -0.44604300000000   -4.10256400000000    3.38547400000000
H        -0.81094300000000   -4.85621300000000    2.89340000000000
O        -5.05879400000000   -1.13128600000000    0.23059600000000
H        -5.37391400000000   -0.32859500000000    0.67593000000000
O        -4.63915100000000    2.83439300000000    0.42059900000000
H        -4.43731400000000    3.57523900000000    1.03118500000000
O        -5.11844200000000   -0.06105500000000   -1.88567500000000
H        -5.28661700000000    0.75570400000000   -2.38854100000000
O         2.71462000000000    2.56064800000000    3.73870600000000
H         3.10200400000000    1.90129000000000    4.33983500000000
O         3.32268200000000    3.63578000000000   -0.91256800000000
H         4.06982100000000    3.29206100000000   -0.39058000000000
O        -2.80117300000000    4.22559700000000    1.32220200000000
H        -2.69122500000000    4.96177000000000    0.69579900000000
O         0.30797700000000    2.83606300000000    4.24682000000000
H         0.52658100000000    3.71789200000000    3.90061000000000
O        -1.93757400000000    4.69517600000000   -0.96284400000000
H        -1.61773300000000    4.80888800000000   -1.87414300000000
O        -4.27399200000000    2.29070400000000   -1.94815800000000
H        -4.82292600000000    2.81110700000000   -1.32918000000000
O         3.22590400000000    0.21916300000000    3.88519000000000
H         3.27449900000000   -0.73596600000000    4.07145400000000
O         0.08467600000000    0.51143100000000    5.07941300000000
H         0.24886500000000    1.41612200000000    5.39918300000000
O        -1.42676100000000   -4.71118900000000    1.17968200000000
H        -1.84691300000000   -4.90968500000000    0.32925000000000
O        -2.48975900000000   -4.03727500000000   -1.76583400000000
H        -1.89281400000000   -4.36709300000000   -2.45678400000000
O         4.45574200000000   -2.20758200000000   -0.67623000000000
H         4.58282600000000   -1.91581700000000   -1.59624600000000
