156
 energy: -347.971503415397 gnorm: 0.000132966745 xtb: 6.4.1 (a3dbbd7)
C         3.86377587488717    0.28269096615154   -0.80433560676711
C         3.41857416224699   -1.24851458953087   -0.91961154116698
C         3.22694962208977   -1.78679807192385    0.53543328477697
C         3.60605609694887    0.59549851295270    0.72141791783479
C         2.74996489714807   -0.53899477034332    1.21796189842615
C         3.21541345183564    2.03114994255804    1.13965792215681
C         2.45033103632955    2.90051293573719    0.09348538252027
C         3.26968754245599    1.26051190825935   -1.93051473750571
C         2.61373073858111    2.64870760861750   -1.44095461386870
C         2.19128120646324    0.69268288560356   -2.95551529027774
C         2.11951462516314   -1.37792486272045   -1.60203390039110
C         2.01180782801320   -0.81316776971981   -2.98199180647955
C         1.56251430147184   -2.75168773866701   -1.68786965957880
C         2.30178873477565   -3.04272305248510    0.80379256871721
C         1.37653491806031   -3.55249974027803   -0.38218611725115
C         1.28613386685513   -2.82645370667747    2.01806124530577
C         2.55727954030483   -0.60003335131522    2.69021751191836
C         1.56890479826575   -1.76572836901094    3.11976273838245
C         2.30825765762007    2.08269671995925    2.48983176179708
C         1.90134024832585    0.72608223986108    3.18320446012027
C         1.04950042621597    2.87045291827737    0.59574630091140
C         1.04917698499277    2.97373541162232    2.07842695178068
C        -0.00677914249427    3.12119051207187   -0.12972239305442
C         1.23870149555170    2.77669649371092   -2.25880821484195
C         0.92064422904932    1.38739028318524   -2.64267929086687
C         0.04395131155042    3.45641886406642   -1.58129749903518
C        -0.26488804087335    0.97272462127528   -3.02267136750871
C         0.64459100348363   -1.38593530117296   -3.57099628207373
C         0.34598439466838   -2.63765687637773   -2.64082394894615
C        -0.52634845004585   -0.33331994877803   -3.73006398701542
C        -1.06509208558773   -2.55962925233629   -2.02428181249461
C        -0.06692016085865   -3.58918792080916    0.19813639195608
C        -0.05384796214713   -2.64907193355769    1.35357487736473
C        -1.25008320629293   -3.47097092969912   -0.79085660928765
C        -1.26834542013613   -2.72526903443910    2.21090922552832
C         0.24103952940901   -1.02920224985549    3.60286094329854
C         0.44708738737095    0.35913112254623    3.07323084342243
C        -1.19068559166890   -1.63312048968783    3.33588975515248
C        -0.33520548961768    2.66126811510163    2.68033775910158
C        -0.52792855188600    1.20341648035755    2.85183992955814
C        -1.33652803527633    3.50502239704084    0.40872023355859
C        -1.64522060644621    3.10398279503333    1.87841465755003
C        -1.43729322780258    3.08731955584888   -2.06838487757496
C        -1.51495907286680    1.81132910569276   -3.01084687843931
C        -2.29130858866114    3.05172293683781   -0.73061293179209
C        -1.98384742354997   -0.64137611266636   -3.24064422806154
C        -1.93277223206482   -1.25902698289573   -1.84012168830664
C        -2.60304410491634    0.70764013677534   -2.79261060121639
C        -2.59653824502908   -2.96978003719210   -0.12519593811649
C        -2.52417714722585   -2.41422220316017    1.34282158080132
C        -3.16201996771394   -1.89561604102388   -1.14227245873734
C        -2.28723328916162   -0.58444690947508    2.87507316312943
C        -1.96234862270064    0.90049182556776    3.06542917718508
C        -2.73220397931926    1.93233499522103    2.14985987267944
C        -2.56824403452356   -0.92726838029690    1.45560712042400
C        -3.02691884958535    1.69673324649611   -0.56963460311651
C        -2.66784129361465    0.33995220645225   -1.30536143016933
C        -3.75400852273613   -0.55466259759470   -0.68203205562029
C        -3.52023391768523    1.36524088970019    0.88424889810936
C        -3.69388135925130   -0.20306743893152    0.82601676800909
O         5.25672715196252    0.28201002380747   -0.94531888656748
H         5.44702842384806    0.73236137931966   -1.79622442456167
O         4.39808756824473    2.74991177590344    1.39225772331882
H         5.09386793962754    2.08401807943758    1.56021753747274
O         3.79770027328613   -0.80292775031937    3.30867623712591
H         3.62463881597001   -1.32344877132049    4.11425507390426
O         4.43658408433177   -1.97566917936480   -1.56267563210171
H         5.26727106119616   -1.50053043625727   -1.35792432112709
O         2.18779718248490    0.83006516900078    4.56481067294011
H         2.71225564095345    1.64452084184612    4.68029452938261
O         3.03873725242810    2.80261252064141    3.44031821688807
H         3.81965774090885    3.16589270643150    2.97016596509655
O         4.52351063056374   -2.10829880081732    1.01261963878038
H         4.48579974761058   -3.00096398665798    1.40349074054306
O         2.82738488562614    4.24791953687576    0.33820859688519
H         3.66077359711710    4.41990634408875   -0.12625649077987
O         3.45409761140831    3.67195107288977   -1.92001176556631
H         2.90858780324832    4.16754165224328   -2.57599659128348
O         4.37654344949799    1.58996241551920   -2.73500835589906
H         4.46900822122151    2.56746395469330   -2.68947501242071
O         3.16032557497234   -4.08770600606212    1.17394257860195
H         2.94858510434023   -4.85627389830180    0.61455365539799
O         1.77082079476590   -4.87561870215026   -0.65575678488628
H         1.15398434902439   -5.24384100884760   -1.30336315751319
O        -0.16377022863331   -4.92156581365388    0.73440101879091
H        -0.96340756743177   -4.97788330446702    1.28275998105915
O        -1.42642169397914   -4.76554302884914   -1.31620009556920
H        -2.22136651785056   -5.13979472434768   -0.89371488470769
O        -3.45153906195822   -4.08334008116987   -0.07897561795229
H        -4.21665881878265   -3.89961700036235   -0.64809527456698
O        -4.93632268926283   -0.58113139232624    1.37293246526068
H        -4.78133591348161   -0.89300703594532    2.28379669581395
O        -3.29802005000812    4.03331492734471   -0.74111314030548
H        -3.33827885403224    4.40059174686315   -1.63766369791749
O        -3.76130335991128    0.98828647432372   -3.50877468399439
H        -3.92168429551521    0.20047672224830   -4.06907392518323
O        -4.09559887052217   -2.57229914162820   -1.95466904431667
H        -4.80124837086787   -1.93104759537960   -2.16504265468842
O        -5.08438529750485   -0.42494872344492   -1.13076782386524
H        -5.63509689438718   -0.49265502502400   -0.32335131266430
O        -1.93552615237255    4.17419818139906   -2.79047129467446
H        -1.49017461761327    4.17517699329744   -3.65193548453167
O        -1.68185725342936    2.29395454222286   -4.32368253146829
H        -2.63344141938640    2.22354094446845   -4.52015896895846
O        -4.82852862459756    1.88684142119157    0.98602543528388
H        -4.90429035151963    2.60622153995907    0.32998284662648
O        -3.68766421952413    2.50174723288887    3.00188608661586
H        -4.53806715010933    2.51247111842789    2.51814867439804
O         0.91713118076685   -1.86228919013556   -4.85641942719699
H         0.92589630078043   -2.84148143584971   -4.78676164899655
O         0.42137727016995   -3.80651887343250   -3.42217219473112
H        -0.48792062020920   -4.12584443359292   -3.56414719483984
O        -1.29082832484431    4.92079098554310    0.35380815395362
H        -1.97022804868132    5.25015311684067    0.96639494531116
O        -2.16006862815275    4.24905014653242    2.48858614620169
H        -1.83026646695413    4.23451072365584    3.40898246393279
O         2.15566604244196   -2.37382311451386    4.23153932269896
H         1.97260179605200   -3.32637420051953    4.17329640090224
O        -1.44812780340271   -3.99661157432388    2.80941412082242
H        -1.48392042271793   -3.83002370287076    3.77546641286861
O        -2.76483739448728   -1.22355115503952   -4.23831269448186
H        -2.26739936346584   -1.07544376149417   -5.06666441978467
O         3.07649168525409   -1.25806089288074   -3.79596182749856
H         3.10335799936384   -2.23018157690713   -3.74480463497812
O         2.53359834648541    1.13576957365755   -4.25213483715151
H         3.16715440348799    0.48758306197773   -4.60387427322944
O        -2.23598684173527    1.16929837705624    4.42752156840623
H        -2.75065576812803    1.99386488002328    4.46119895785296
O        -3.66913342566372   -2.90773053255696    2.00551958786125
H        -3.38118616014170   -3.65188493962953    2.56088021386088
O        -1.63196997518697   -2.25444867737912    4.50900524242148
H        -1.15655431587225   -1.82380027545306    5.24339765599284
O         4.85361651161098    0.43137008242066    1.38130317027027
H         5.09561753767285   -0.51419427155043    1.39160232790694
O         0.30009475364918   -0.93811138079508    5.01144443308374
H         1.03276173103134   -0.33792490136962    5.24004742970544
O        -0.69569747540379   -0.07339535328224   -5.10720802655093
H         0.11773134765053   -0.33888556939451   -5.56328641298836
O         1.51802519906886    3.51295928335821   -3.43096171022805
H         1.86275750287122    2.89256986034848   -4.09921059100364
O        -0.40691599024473    3.26331541056378    3.95611863388909
H         0.29983279054816    3.93167910077948    3.97888938561961
O         0.26538791839065    4.82634529096401   -1.75364143791491
H        -0.34456798982969    5.30133703765588   -1.16316126782636
O         1.29633787169643    4.30629350912573    2.46838840579215
H         1.94526776840506    4.68521136225300    1.85132588447673
O        -3.46721967835945   -0.83890258524447    3.61616793474147
H        -3.37903825828338   -0.29674779153898    4.42541959069300
O         1.26599794855967   -4.04490755239908    2.74806616802095
H         0.94528434074793   -4.74557752862325    2.14706811599617
O        -1.81092506034830   -3.16464919595679   -3.07190403405992
H        -2.76178097841590   -3.20879204136398   -2.86673735363140
O         2.51867820894467   -3.48616392752849   -2.46648950571977
H         3.38085460245699   -3.44139658360892   -2.01688843969944
O        -4.18245020148360    2.02203592205992   -1.31829236975029
H        -4.77201178644720    1.25553741382353   -1.44629865505087
