156
 energy: -348.041917324226 gnorm: 0.000257357374 xtb: 6.4.1 (a3dbbd7)
C        -3.96736800000000   -0.09244400000000   -0.54593700000000
C        -3.75422600000000    1.25344100000000    0.32491600000000
C        -3.24833200000000    0.74288300000000    1.75565400000000
C        -3.50083800000000   -1.25581100000000    0.42946100000000
C        -2.64945200000000   -0.59919800000000    1.47041900000000
C        -3.01016900000000   -2.59326600000000   -0.18277500000000
C        -2.32474100000000   -2.53627700000000   -1.58052400000000
C        -3.44594000000000   -0.06093500000000   -2.03752600000000
C        -2.68947500000000   -1.39527100000000   -2.57639300000000
C        -2.51085600000000    1.12998400000000   -2.52110500000000
C        -2.85880400000000    2.39603200000000   -0.22763200000000
C        -2.49344700000000    2.46034900000000   -1.74583800000000
C        -1.56233700000000    2.58251800000000    0.48757700000000
C        -2.33998700000000    1.63285800000000    2.69388000000000
C        -1.56010200000000    2.79499000000000    1.94976400000000
C        -1.21186400000000    0.82208400000000    3.46259200000000
C        -2.29137900000000   -1.45505800000000    2.63412300000000
C        -1.29822400000000   -0.72691700000000    3.63485000000000
C        -1.96497800000000   -3.39409500000000    0.77347600000000
C        -1.54046200000000   -2.73371900000000    2.13322800000000
C        -0.87434000000000   -2.69908800000000   -1.26179700000000
C        -0.71807700000000   -3.70134000000000   -0.17835500000000
C         0.11588800000000   -2.37161200000000   -2.04961400000000
C        -1.40459900000000   -0.85891300000000   -3.35627900000000
C        -1.18943400000000    0.48614200000000   -2.76155900000000
C        -0.10250600000000   -1.68062700000000   -3.34462100000000
C        -0.05491500000000    1.13397500000000   -2.85480100000000
C        -1.07451500000000    3.26849100000000   -1.79897700000000
C        -0.75400300000000    3.55660500000000   -0.28743900000000
C         0.06716500000000    2.60486500000000   -2.64373500000000
C         0.74867100000000    3.55102800000000    0.07190200000000
C        -0.08117200000000    2.75198500000000    2.47026300000000
C         0.04010200000000    1.29519900000000    2.77873200000000
C         1.07878500000000    3.35513200000000    1.59399300000000
C         1.17439200000000    0.64241100000000    2.71669700000000
C         0.09390600000000   -1.48604200000000    3.43723500000000
C        -0.12703900000000   -2.25022400000000    2.18452300000000
C         1.39754900000000   -0.66635700000000    3.39152600000000
C         0.71394200000000   -3.68044600000000    0.39449600000000
C         0.86791700000000   -2.61618000000000    1.41910400000000
C         1.53552000000000   -2.83747800000000   -1.96832200000000
C         1.95577900000000   -3.42451600000000   -0.57421700000000
C         1.28785300000000   -0.93102200000000   -3.57538500000000
C         1.20149000000000    0.62451100000000   -3.50263900000000
C         2.26669200000000   -1.57931900000000   -2.52114900000000
C         1.55134500000000    2.68293000000000   -2.12519600000000
C         1.54912000000000    2.53933900000000   -0.65424900000000
C         2.34064800000000    1.47759900000000   -2.78507200000000
C         2.49559800000000    2.55016500000000    1.57969200000000
C         2.49130800000000    1.27693000000000    2.44133600000000
C         2.84719100000000    2.39932000000000    0.06759900000000
C         2.68727700000000   -1.23953900000000    2.65150700000000
C         2.31330800000000   -2.43195800000000    1.72543900000000
C         2.99744100000000   -2.57041400000000    0.33077000000000
C         3.42704300000000    0.07610600000000    2.04494400000000
C         2.62004800000000   -0.65695400000000   -1.40476700000000
C         3.25116900000000    0.63849600000000   -1.79582800000000
C         3.76332100000000    1.22982700000000   -0.40793600000000
C         3.49750500000000   -1.26650500000000   -0.34644300000000
C         3.95992600000000   -0.05691000000000    0.55547200000000
O        -5.36148200000000   -0.28065500000000   -0.60673000000000
H        -5.62614700000000   -0.21442400000000   -1.54400300000000
O        -4.12512900000000   -3.42452500000000   -0.37178100000000
H        -4.84371100000000   -3.06193100000000    0.18134000000000
O        -3.45132300000000   -1.82074600000000    3.32889000000000
H        -3.19872400000000   -1.91680700000000    4.26471400000000
O        -5.01674200000000    1.82567100000000    0.51430300000000
H        -5.66773600000000    1.12214900000000    0.29774400000000
O        -1.65103000000000   -3.69520100000000    3.16520800000000
H        -2.13820800000000   -4.44942000000000    2.78266400000000
O        -2.56218400000000   -4.61310000000000    1.09858600000000
H        -3.38209200000000   -4.66487300000000    0.55841300000000
O        -4.44646600000000    0.51808600000000    2.48585000000000
H        -4.40624600000000    1.07115300000000    3.29141300000000
O        -2.62124500000000   -3.76897800000000   -2.22095600000000
H        -3.37410700000000   -3.60243500000000   -2.81599600000000
O        -3.55447800000000   -1.96447000000000   -3.51408500000000
H        -3.32365200000000   -1.54628300000000   -4.36983400000000
O        -4.61513600000000    0.05403400000000   -2.80646600000000
H        -4.34445400000000    0.52641100000000   -3.62538900000000
O        -3.16464500000000    2.21809400000000    3.66014700000000
H        -3.25699500000000    3.15996000000000    3.39562000000000
O        -2.16714700000000    4.01522900000000    2.31679300000000
H        -1.55036600000000    4.47948000000000    2.90878300000000
O        -0.08385800000000    3.45855300000000    3.70353900000000
H         0.59427300000000    4.16314800000000    3.60254300000000
O         1.34021600000000    4.61790400000000    2.14643500000000
H         2.31821700000000    4.71912400000000    2.12225200000000
O         3.47370500000000    3.41778900000000    2.08925400000000
H         3.73524700000000    3.07545800000000    2.96358100000000
O         5.34852600000000   -0.20245200000000    0.74429300000000
H         5.66086100000000   -0.83526100000000    0.06761700000000
O         3.45010700000000   -1.98430400000000   -3.21108900000000
H         3.16375400000000   -2.19445200000000   -4.12118900000000
O         3.15426700000000    2.02656400000000   -3.77798700000000
H         4.05270200000000    1.65982500000000   -3.62525600000000
O         3.50948200000000    3.60780400000000   -0.28030700000000
H         4.43755500000000    3.37107800000000   -0.48610200000000
O         5.02600200000000    1.78642700000000   -0.61073300000000
H         5.65469900000000    1.25342900000000   -0.07543700000000
O         1.76351100000000   -1.31010400000000   -4.83825100000000
H         1.59733800000000   -0.55756200000000   -5.43391000000000
O         1.16395600000000    1.02062300000000   -4.85775400000000
H         0.84207300000000    1.93879500000000   -4.89351300000000
O         2.12548000000000    3.89552000000000   -2.53322900000000
H         2.68525900000000    3.68215700000000   -3.30624700000000
O        -1.22429500000000    4.85966200000000    0.01466100000000
H        -0.43918400000000    5.43308600000000    0.08996700000000
O         4.71379000000000   -1.66871100000000   -1.00126300000000
H         4.50260900000000   -2.30017400000000   -1.70493600000000
O        -1.32877700000000    4.49360900000000   -2.42118800000000
H        -1.58258900000000    5.10755600000000   -1.70114200000000
O         1.68317700000000   -3.84536200000000   -2.95490700000000
H         1.97894900000000   -4.64908400000000   -2.48791600000000
O         0.92531500000000   -4.91550600000000    1.04967100000000
H         0.45274700000000   -5.58517300000000    0.52688800000000
O        -3.45493400000000    3.25789100000000   -2.38307000000000
H        -3.73424200000000    3.92239300000000   -1.72421200000000
O         2.55215300000000   -4.66532700000000   -0.82923600000000
H         3.45122300000000   -4.62601400000000   -0.43297700000000
O        -2.93660500000000    1.43603900000000   -3.84821600000000
H        -3.12833600000000    2.38766300000000   -3.88416100000000
O         3.57887000000000   -1.76206200000000    3.58681600000000
H         3.35350100000000   -1.38097400000000    4.45257400000000
O         1.77240900000000   -0.41659200000000    4.73924500000000
H         1.31652800000000   -1.09896400000000    5.26783500000000
O         4.54110500000000    0.31722200000000    2.85641100000000
H         5.16303800000000   -0.41814000000000    2.76864700000000
O        -1.75256900000000   -1.02774800000000    4.92299700000000
H        -1.66505600000000   -0.22158900000000    5.45849000000000
O         4.14148500000000   -3.36599800000000    0.51960100000000
H         4.08544600000000   -3.68851300000000    1.44949500000000
O        -4.66029900000000   -1.68358500000000    1.13363400000000
H        -4.91492100000000   -1.00929100000000    1.79119400000000
O         0.27200800000000   -2.38203600000000    4.50944700000000
H        -0.42952500000000   -3.05343100000000    4.44976500000000
O        -0.85507200000000   -4.99947700000000   -0.70944100000000
H        -1.60802700000000   -4.98777200000000   -1.32558600000000
O         0.03975700000000    3.18707300000000   -3.93214400000000
H        -0.24143300000000    4.11089900000000   -3.81255300000000
O         2.68756400000000   -3.58018600000000    2.47636500000000
H         2.10789300000000   -4.32196500000000    2.21742000000000
O        -0.27262900000000   -2.64088000000000   -4.36345800000000
H         0.43114800000000   -3.30392100000000   -4.26198500000000
O        -1.78198900000000   -0.69662700000000   -4.70780200000000
H        -1.30015400000000   -1.37909100000000   -5.20751900000000
O        -1.15376200000000    1.30282100000000    4.79182700000000
H        -0.86628100000000    2.23060500000000    4.77274500000000
O        -3.53478300000000    3.62849900000000    0.02308400000000
H        -4.34860200000000    3.42601500000000    0.51684300000000
O         2.88670400000000    1.77548100000000    3.71770800000000
H         2.80967600000000    1.06714900000000    4.37536300000000
O         1.17724000000000    4.84936700000000   -0.30328100000000
H         2.10878200000000    4.80270500000000   -0.58281500000000
O         4.45993300000000    0.41381300000000   -2.52396500000000
H         4.37990200000000   -0.44239300000000   -2.98501700000000
