156
 energy: -348.036774504977 gnorm: 0.000142962703 xtb: 6.4.1 (a3dbbd7)
C        -3.66106400000000   -1.40175900000000   -0.00028400000000
C        -3.70813000000000    0.07341200000000   -0.61389200000000
C        -3.55388800000000    1.07129900000000    0.56043000000000
C        -3.19791300000000   -1.14496300000000    1.48429300000000
C        -2.66387200000000    0.26439400000000    1.46616400000000
C        -2.36256900000000   -2.22514300000000    2.22094800000000
C        -1.45216800000000   -3.13536200000000    1.34916800000000
C        -2.89840500000000   -2.50287000000000   -0.87667000000000
C        -1.85066400000000   -3.45106500000000   -0.11657100000000
C        -2.11391800000000   -2.04853100000000   -2.17348600000000
C        -2.56385800000000    0.33164000000000   -1.51442900000000
C        -2.41000000000000   -0.63332700000000   -2.64008900000000
C        -2.49166300000000    1.69020800000000   -2.13436100000000
C        -3.04137200000000    2.54482800000000    0.27260200000000
C        -2.40314700000000    2.90426900000000   -1.17610200000000
C        -1.91528900000000    2.96950400000000    1.31234600000000
C        -2.38862400000000    0.83128600000000    2.81187200000000
C        -1.75172100000000    2.27144800000000    2.70588500000000
C        -1.38284900000000   -1.61433000000000    3.36460100000000
C        -1.34304000000000   -0.05652000000000    3.56381000000000
C        -0.08640700000000   -2.58070000000000    1.57411200000000
C         0.04893000000000   -2.21982500000000    3.01228300000000
C         0.93737800000000   -2.79576800000000    0.78564000000000
C        -0.58071200000000   -3.51657400000000   -1.08671900000000
C        -0.68292600000000   -2.32035100000000   -1.93595800000000
C         0.82382300000000   -3.59645700000000   -0.45967900000000
C         0.25614300000000   -2.15837900000000   -3.06921500000000
C        -1.34390000000000   -0.02629200000000   -3.61210100000000
C        -1.39679200000000    1.56241600000000   -3.25515300000000
C         0.08079100000000   -0.69406000000000   -3.61195300000000
C        -0.00333400000000    2.18824600000000   -2.96872700000000
C        -0.98357200000000    3.47469800000000   -0.88906500000000
C        -0.68108600000000    2.91582400000000    0.46123200000000
C         0.11645300000000    3.38821100000000   -1.97722800000000
C         0.54305200000000    2.86672500000000    0.91921100000000
C        -0.23197900000000    2.07309700000000    3.15809400000000
C        -0.06161500000000    0.59776500000000    3.14252800000000
C         0.87319100000000    2.79798200000000    2.36738000000000
C         1.32959700000000   -1.40839600000000    3.28038500000000
C         1.11893900000000    0.04355500000000    3.03727900000000
C         2.37092600000000   -2.69945100000000    1.18385600000000
C         2.62403300000000   -1.73974500000000    2.39990300000000
C         2.06499200000000   -3.14379100000000   -1.32905300000000
C         1.80073200000000   -2.29644500000000   -2.64949600000000
C         3.08261200000000   -2.49795000000000   -0.22228600000000
C         1.09970100000000   -0.00797900000000   -2.76458900000000
C         1.04821600000000    1.25889600000000   -2.45674600000000
C         2.35731800000000   -0.81467200000000   -2.72364000000000
C         1.65743700000000    3.29495000000000   -1.39574900000000
C         1.73351300000000    3.32054100000000    0.15632500000000
C         2.25979500000000    2.04380500000000   -2.08883000000000
C         2.35765700000000    2.21606100000000    2.35909000000000
C         2.43590800000000    0.73960200000000    2.87919000000000
C         3.21019400000000   -0.32029800000000    2.02562400000000
C         2.91413700000000    2.57152700000000    0.86690700000000
C         3.58380200000000   -1.03526700000000   -0.39038700000000
C         3.48867500000000   -0.33452800000000   -1.77186700000000
C         3.44422200000000    1.26362600000000   -1.42473700000000
C         3.06355000000000   -0.02090100000000    0.58802200000000
C         3.53065200000000    1.32623000000000    0.13693800000000
O        -4.99362400000000   -1.84121500000000    0.08851200000000
H        -5.50084000000000   -1.26828000000000   -0.52856000000000
O        -3.25192200000000   -3.11338100000000    2.85296400000000
H        -4.10878400000000   -2.64684400000000    2.91408700000000
O        -3.58301900000000    0.91047000000000    3.54600400000000
H        -3.48825000000000    1.67042000000000    4.14742100000000
O        -4.97827300000000    0.24455400000000   -1.22235500000000
H        -5.49190300000000    0.81327400000000   -0.61684700000000
O        -1.48396600000000    0.23954900000000    4.93983400000000
H        -1.73135900000000   -0.59289300000000    5.38170300000000
O        -1.78441400000000   -2.16277700000000    4.58640900000000
H        -2.49605100000000   -2.80665500000000    4.37895000000000
O        -4.85556600000000    1.20727200000000    1.13435500000000
H        -4.98365800000000    2.15093700000000    1.35035200000000
O        -1.35191100000000   -4.39848700000000    2.01100800000000
H        -2.15134500000000   -4.90283600000000    1.78386700000000
O        -2.41465800000000   -4.73268000000000   -0.06688500000000
H        -3.03899500000000   -4.78635000000000   -0.81755700000000
O        -3.89298900000000   -3.35378500000000   -1.38630700000000
H        -4.68789600000000   -3.21647200000000   -0.82668600000000
O        -4.13737000000000    3.39244700000000    0.44879500000000
H        -4.24413100000000    3.88012500000000   -0.39913500000000
O        -3.17847100000000    3.92385000000000   -1.74842300000000
H        -2.63765600000000    4.73542900000000   -1.73778100000000
O        -1.17325300000000    4.88447500000000   -0.67096200000000
H        -0.29331500000000    5.29579300000000   -0.68325400000000
O        -0.00106100000000    4.57518500000000   -2.70300800000000
H         0.46889600000000    4.41962400000000   -3.54241300000000
O        -0.04868000000000   -3.10002200000000   -4.06254700000000
H         0.79716500000000   -3.39166000000000   -4.44539900000000
O         0.55775400000000   -0.66867400000000   -4.94109700000000
H        -0.21825300000000   -0.74027200000000   -5.52193500000000
O         2.37540300000000   -2.99179600000000   -3.72050400000000
H         3.32949000000000   -3.04411900000000   -3.58182500000000
O         2.68642600000000   -4.29310000000000   -1.81956100000000
H         2.56354500000000   -5.00545000000000   -1.17485700000000
O         0.49012900000000    2.64545100000000   -4.21726000000000
H        -0.25417200000000    2.62846400000000   -4.84409400000000
O         1.02842200000000   -4.96579200000000   -0.12149000000000
H         0.59830900000000   -5.13525700000000    0.72894200000000
O        -2.52589800000000   -2.86831100000000   -3.25679800000000
H        -1.99208300000000   -3.67905400000000   -3.27087100000000
O        -1.80388000000000   -0.18153900000000   -4.92434000000000
H        -2.77604200000000   -0.20629800000000   -4.88968300000000
O        -3.65946200000000   -0.69074700000000   -3.33987800000000
H        -3.80539500000000   -1.62882800000000   -3.56295300000000
O        -1.88597000000000    2.22550900000000   -4.38960400000000
H        -2.81767300000000    2.45991200000000   -4.19609700000000
O         1.78605200000000    4.68826300000000    0.50584900000000
H         2.70206200000000    4.97899500000000    0.36814300000000
O         3.91792100000000    3.52704000000000    1.00949800000000
H         4.75644900000000    3.10110500000000    0.73620100000000
O         4.57402600000000   -0.27756000000000    2.40817000000000
H         4.56214300000000   -0.04302000000000    3.36015300000000
O         4.59921300000000    1.85082400000000   -1.92793900000000
H         5.08035000000000    1.15758400000000   -2.42196900000000
O         3.06990900000000    0.72033000000000    4.14092500000000
H         3.16334000000000    1.64849000000000    4.42295800000000
O         3.11893100000000    2.96831600000000    3.25883700000000
H         2.82891200000000    3.89213700000000    3.14025800000000
O         4.67571500000000   -0.57841700000000   -2.47117600000000
H         5.33610600000000   -0.87396700000000   -1.81803800000000
O         2.34240000000000    4.43423200000000   -1.81198500000000
H         2.79282800000000    4.20542900000000   -2.64185100000000
O         4.98754700000000   -1.07269400000000   -0.12618000000000
H         5.15439900000000   -1.54648000000000    0.70071400000000
O         3.55234400000000   -2.38054900000000    3.23048600000000
H         3.27434800000000   -2.14986900000000    4.14562700000000
O         4.23260300000000   -3.28817700000000   -0.24372600000000
H         4.03254500000000   -4.08706500000000    0.27688300000000
O        -2.38139200000000    3.04411700000000    3.68628300000000
H        -2.42950000000000    3.95289200000000    3.34158900000000
O        -4.37898300000000   -1.11359600000000    2.27892000000000
H        -4.84290000000000   -0.26791100000000    2.14353000000000
O         1.68781600000000   -1.57894600000000    4.63336100000000
H         1.19097300000000   -2.34998900000000    4.95818400000000
O        -0.09075600000000    2.52983900000000    4.48508900000000
H        -0.65190900000000    1.97130800000000    5.04850400000000
O         0.24709700000000   -3.39272200000000    3.77590300000000
H        -0.40974100000000   -4.05173600000000    3.49199200000000
O         2.71921000000000   -4.00701200000000    1.61144700000000
H         3.21160700000000   -3.89134500000000    2.44982500000000
O        -2.15319800000000    4.31821400000000    1.66199900000000
H        -1.90003000000000    4.88118800000000    0.90622600000000
O         0.94122500000000    4.11654700000000    2.85956700000000
H         0.58471700000000    4.08884200000000    3.76453800000000
O         2.77890400000000    2.52250000000000   -3.32033700000000
H         3.04302900000000    1.76136500000000   -3.85691100000000
O         2.95783800000000   -0.61351200000000   -3.98833100000000
H         2.28136800000000   -0.74959700000000   -4.67562600000000
O        -3.73409200000000    1.92672000000000   -2.80575000000000
H        -4.15848700000000    1.07276200000000   -2.99909200000000
O        -0.75352700000000   -4.64578100000000   -1.92233400000000
H        -0.16939300000000   -5.34856700000000   -1.58772900000000
O         4.93109700000000    1.41747800000000    0.40340300000000
H         5.13463900000000    0.90340600000000    1.20745600000000
