156
 energy: -347.974037572335 gnorm: 0.000135276011 xtb: 6.4.1 (a3dbbd7)
C        -3.33505496840478   -2.01566620667293    0.20727468901137
C        -3.65889977646177   -0.59455167638005   -0.46801187692534
C        -3.62324533091037    0.46597868718823    0.67612956075659
C        -2.85604018179763   -1.61625432088504    1.65103311259730
C        -2.58704346760227   -0.13817521774861    1.57922972103490
C        -1.83668384939653   -2.52238146598539    2.38484358083584
C        -0.83102566544319   -3.33887204348742    1.51789136301910
C        -2.44240407610112   -3.02007352798955   -0.66540473687838
C        -1.21116172557424   -3.75931397026826    0.06595669443803
C        -1.79762740699708   -2.50003608836985   -2.01719950719399
C        -2.62223434360785   -0.19985227502049   -1.43754508327122
C        -2.34221653078401   -1.16628123181810   -2.52775672066465
C        -2.77657205584639    1.13447292879121   -2.09434066743866
C        -3.36315237395954    1.98585600764218    0.31967325518155
C        -2.85870665410620    2.36873744662948   -1.16196780979054
C        -2.27593726068436    2.65211532558354    1.26892634076618
C        -2.35352737634954    0.52521112938444    2.88453695081605
C        -1.96063467916890    2.05378805940835    2.68693770153671
C        -0.92721838035989   -1.71662995967293    3.45803700651761
C        -1.13698141636609   -0.15761063280481    3.59061922019019
C         0.44965033713475   -2.59118360834433    1.67672666483150
C         0.57431208750236   -2.12634599625390    3.08422334350956
C         1.47087333613964   -2.66728559031586    0.86331429954244
C         0.02248058946797   -3.64297597714240   -0.94814810295351
C        -0.33009606091192   -2.50786090044067   -1.81990679810121
C         1.44244648162431   -3.47907134828434   -0.38088400879127
C         0.50720458100598   -2.22308633637963   -3.00065957014582
C        -1.43643602113042   -0.41228738329154   -3.56973941233621
C        -1.72545597356994    1.15870168702422   -3.25802824868127
C         0.07467208369322   -0.83671867372890   -3.61155229586871
C        -0.45309148826779    2.02180067632678   -3.06723039262905
C        -1.55531355938365    3.19534126438326   -0.95578879869941
C        -1.06058704421717    2.78490864139371    0.39789993339106
C        -0.52027697723531    3.26112049166310   -2.11993786394079
C         0.05081906114358    3.61705284671791    0.92378367502374
C        -0.42021544080926    2.12558487388380    3.06612049467291
C        -0.01919001649174    0.67908190103121    3.04105496568282
C         0.56229077213455    3.09091455875356    2.31397388632935
C         1.69797533207383   -1.08626510730833    3.21868391503248
C         1.20963582661920    0.26537996305802    2.86440542257779
C         2.88004312480179   -2.26741556988970    1.15472747755106
C         3.03061976021944   -1.24897078463322    2.34123088325510
C         2.53860213429377   -2.80104415547370   -1.31083256180036
C         2.06604303540399   -2.09755521324216   -2.67179731369948
C         3.35665750883108   -1.86062723185033   -0.28212808851540
C         1.00852745679212    0.06653671986488   -2.88587891513678
C         0.77979266756584    1.32447970576071   -2.61024270896801
C         2.36022090400597   -0.55086288375774   -2.84863427668733
C         0.99634556782835    3.49517955382045   -1.59396582738840
C         1.25997046897791    3.53906133261428   -0.05549679405968
C         1.83802985895375    2.33969891242558   -2.28669902219702
C         1.97919460955895    2.46267269414839    1.97025029334663
C         2.36420567663492    1.16911427948362    2.68641102113948
C         3.46261340757370    0.27983239915571    2.00465919459009
C         1.97722608439446    2.33308030602688    0.48279114509078
C         3.09710749741692   -0.41997394978116   -0.46320319751931
C         3.27551434163423    0.13432225735130   -1.83131322648480
C         3.13740244141426    1.71089447279058   -1.64468265170078
C         3.72382894270725    0.53663533512196    0.49054995020607
C         3.27365058640633    1.92011820695362   -0.10357310049769
O        -4.57885727027938   -2.62823678284396    0.40798051796388
H        -4.63760306915977   -3.35010506673365   -0.25303981163769
O        -2.56186157963294   -3.50527555648144    3.08734659247629
H        -3.47278164783252   -3.15959930501437    3.17780241665832
O        -3.49711043584002    0.45195102877319    3.68584643460948
H        -3.53073605423207    1.28354086879105    4.19647143316717
O        -4.93355614694380   -0.64405070853133   -1.04006075857065
H        -5.46449614114669   -1.21995617560621   -0.45723295160251
O        -1.23703278280932    0.15725433201489    4.96611587807346
H        -1.32873002353241   -0.69133476286582    5.43914153123589
O        -1.20497412255361   -2.25546735391288    4.71722703400284
H        -1.78740366477148   -3.02976078625073    4.56620850341964
O        -4.87150801668839    0.40212708584523    1.33961031998548
H        -5.27071264350478    1.29391285574159    1.29463315330062
O        -0.54824501309916   -4.53498481134022    2.23314722079315
H        -1.33435170942391   -5.10034567500988    2.19795118109464
O        -1.55998729392765   -5.11772573481843    0.13497963888420
H        -1.07173259002798   -5.54029990763695   -0.61098400305258
O        -3.34204447499758   -4.02066504645741   -1.07093986906710
H        -3.02206416722997   -4.85962864932197   -0.67388135495689
O        -4.57674105312021    2.64089368768958    0.52927974637275
H        -4.77865102713754    3.13587711229189   -0.29091938745350
O        -3.82065411134236    3.21970448922926   -1.74177289882414
H        -3.43690240290844    4.11887986962144   -1.73119206275837
O        -2.03513745735213    4.54321917377913   -0.84368603971739
H        -1.29562684109094    5.12376963628921   -0.60941710357505
O        -0.89498347366321    4.34292974553100   -2.92192785164247
H        -0.18832052800479    5.01493268812027   -2.83925908722533
O         1.38843080564036    4.73414526303139   -2.10846423348285
H         1.98798672358669    4.55356751431983   -2.85736864468033
O         4.29522981168541    2.87713818130133    0.09501709694447
H         4.19351015441647    3.23835368238276    0.99348303182117
O         4.72454704456332   -2.11480304195510   -0.42640006968211
H         4.79857715947634   -3.04202527478748   -0.72442312102040
O         2.97740943127405   -0.31827555240349   -4.09444785904050
H         2.34636266367839   -0.57362597892964   -4.78918166163485
O         2.26309300297571    2.89185886859756   -3.53084311229220
H         3.23367273041647    2.74470026262040   -3.57222511361817
O         4.23768315557309    2.29761696249314   -2.28604473887269
H         4.71352931180781    2.81613276152239   -1.61018394197827
O         3.41558139227768   -3.83198121976475   -1.65926107352943
H         3.60118977734128   -3.72225723039137   -2.61718128451391
O         2.76399375811615   -2.73972391778586   -3.70680114533594
H         2.09756663832563   -3.22507693432185   -4.23243839731732
O         5.13381560799646    0.43536177902606    0.34467348187412
H         5.34118905969857    0.12362799923889   -0.55499872518213
O         4.64856548039913    0.54653036948143    2.70284354375657
H         5.36935710326441    0.52661189711035    2.04355811672648
O        -1.93677941585951   -0.69432153735422   -4.84523641475957
H        -2.50672524767770    0.06681432452597   -5.08524747199706
O        -2.43011977630804    1.67398876865515   -4.35789634486744
H        -1.81317206368483    2.24467393590517   -4.85042958113913
O         3.56678807723735   -3.46050280566242    1.48372132074697
H         4.07500489093932   -3.27212359013619    2.29416763397757
O         4.01755788029809   -1.77657340592179    3.17917588542292
H         4.59690149631455   -1.02498351178571    3.43008792721570
O        -2.67021876429135    2.77298136124224    3.64986710228511
H        -3.10340461933348    3.51330359605469    3.17241339855226
O        -0.36776354397883    4.97170757348078    1.07666699876278
H         0.14758405594293    5.33284432743788    1.82336955473982
O         0.78287760921854    4.22697162657663    3.10627480960880
H         0.53910662990920    3.98068348171724    4.01731682550156
O        -3.55921463965065   -1.52327812001320   -3.15628268135634
H        -4.16841909635933   -0.76443845232231   -3.10491437710511
O        -2.05798301514215   -3.46471904493913   -3.02502625944447
H        -2.92424685584136   -3.22877008599849   -3.40460577408271
O         2.97021206413203    3.42994978340057    2.33669476300858
H         3.19438675342130    3.24022767709025    3.26566421403145
O         2.09466053703421   -1.01695599744394    4.57143645607088
H         2.05446389374256   -1.92553281225440    4.91193772871960
O         0.39044502843305   -3.23631724721387   -3.97843275671498
H        -0.49802688143189   -3.63207940320754   -3.87949379269803
O        -3.98882036737830   -1.72371599794408    2.50509507824634
H        -4.63392924743706   -1.02503513271934    2.28525886419730
O         0.50173759232606   -0.81803915768011   -4.95917733842464
H        -0.30141713322224   -0.97396722263753   -5.49304456018684
O         0.98196134731449   -3.18954614255136    3.91148356346338
H         0.51135839935879   -3.98940957768392    3.61990738031980
O        -0.17669904889303    2.47369106413143   -4.38781206223311
H         0.73944515179790    2.79475479715822   -4.42436063006050
O         1.85437335725029   -4.79050404922027   -0.06705201354305
H         2.65739485454453   -4.72474971778862    0.47859499987613
O        -0.32785763331670    2.54686656434850    4.41244647738834
H        -0.73963397064099    1.85978062105817    4.96761116801014
O         2.80539774927451    1.56509252520861    3.97008883187651
H         2.78798144761893    0.78229322973040    4.54540602697212
O         2.08158020324812    4.67382409463381    0.12693179274518
H         2.38644665329223    4.68892191973247    1.04869919355799
O         4.60944528620716   -0.13077305993012   -2.22008878759734
H         4.61688067370211   -0.18156320967631   -3.19097468105984
O         0.03441370726062   -4.84091956514735   -1.71880480925096
H         0.85283850430378   -5.31344352965681   -1.47382798726358
O        -2.81420910174594    3.94790263979201    1.53930992097924
H        -2.09498260173803    4.60323566332725    1.46493165311308
O        -4.04367850265395    1.02509027978203   -2.72880803188046
H        -4.38061484981306    1.92510154306151   -2.87565996812939
