61
 energy: -132.999445707012 gnorm: 0.000133539194 xtb: 6.4.1 (a3dbbd7)
C         0.20037453575619   -0.07046290279436   -3.51437257688029
C         0.27182607513724    1.34556956192294   -3.24759948976009
C        -1.04031711299485    1.78998802780718   -2.85626220093278
C        -1.15854079788059   -0.49837036183590   -3.29362871706678
C        -1.92397809111371    0.64970134231010   -2.88345370762863
C        -1.40962853767996   -1.74141472149769   -2.72326300733959
C        -0.31857605719386   -2.60230973646666   -2.35864961760415
C         1.25480556405268   -0.89716198812639   -3.15600642839172
C         0.99662261616545   -2.18852313045016   -2.56517654429940
C         2.42063190536283   -0.34208010911929   -2.51857525246319
C         1.39777059423024    1.88273021359020   -2.63868195325955
C         2.49307278369484    1.02262942443050   -2.26854657159914
C         1.25201074602556    2.88216424594629   -1.60958583031763
C        -1.18124421369400    2.75467122747940   -1.86665324353225
C        -0.01330139562539    3.31059321595944   -1.23187594013231
C        -2.20884358596825    2.61558450854259   -0.86656528461705
C        -2.91504721903545    0.51756105495467   -1.92040148445992
C        -3.05843994310310    1.51609262360496   -0.89243382821039
C        -2.44227381592663   -1.87939787034471   -1.72479342048888
C        -3.17785989603644   -0.77167539795799   -1.33002107437278
C        -0.67180674436278   -3.27298456039936   -1.13163276241592
C        -1.98557450188599   -2.82834422979429   -0.74027293591673
C         0.29483511503958   -3.50239954018537   -0.16522816296327
C         2.00158191099465   -2.43591177064026   -1.57571152139094
C         2.88382603684784   -1.28362502353473   -1.53369966995357
C         1.65765848148031   -3.06198902572829   -0.37723371068828
C         3.41352993123839   -0.83912326289864   -0.34253208115198
C         3.02134084521497    1.48449968401452   -1.01714558418883
C         2.25738179110295    2.63546810973568   -0.60680552685000
C         3.45330578451658    0.55907493136201   -0.06939265248649
C         1.96273988174482    2.83156456745743    0.73539886577731
C        -0.31942570323410    3.51433103657727    0.16263328686113
C        -1.67603743298109    3.08397568202586    0.38731213443925
C         0.65112116346804    3.28208012520686    1.12768747104323
C        -2.01189870822886    2.43661443840588    1.56964903953156
C        -3.40983389993585    0.84686141993821    0.33353358302548
C        -3.48393413237431   -0.56797083190221    0.06425867760049
C        -2.89547968800607    1.29627463014943    1.54209315608159
C        -2.28034499639219   -2.63216255619232    0.60251485004714
C        -3.04312190937636   -1.47950926109275    1.01229001441639
C        -0.00980111032161   -3.29965193395521    1.22250165913448
C        -1.27228463908675   -2.87334239161505    1.60376404206838
C         2.18720548086577   -2.62450652545795    0.86403980165160
C         3.26559326697587   -1.60703659971558    0.95211649597391
C         1.16959904855071   -2.73716604824787    1.84605619183928
C         3.14697310522002    0.76295203036891    1.32606752810319
C         2.42038536380086    1.88446171333308    1.72043612662503
C         2.91480256408543   -0.50719992312063    1.92935566463298
C         0.30136387267150    2.61243284303566    2.35585496590900
C        -1.00529383160506    2.19554406218405    2.57015102785338
C         1.39832182752803    1.75123097143229    2.71845049538041
C        -2.43624912502602    0.35199581639988    2.52680183100141
C        -2.50512675968329   -1.01231681340095    2.26713238017245
C        -1.41435022982749   -1.87302770145332    2.63300392752940
C        -1.26474158019902    0.90463067975640    3.15976985678238
C         1.02810542811423   -1.78802395333766    2.85883160251651
C         1.91720121310583   -0.64029702860085    2.86963476709666
C         1.14792580245169    0.50495810225125    3.27907543463753
C        -0.27763094352457   -1.34045576919140    3.23951579471766
C        -0.20780004817706    0.07626138926719    3.50670127215156
Cl        4.85872752837699   -2.39780374078504    1.41737525219316
