66
 energy: -141.277528905776 gnorm: 0.000794106295 xtb: 6.4.1 (a3dbbd7)
C        12.81375516911320   12.09165956700656   21.88628275108974
C        12.82328931397414   13.03548474416071   22.90243959756172
C        12.71074732115457   14.43348402052469   22.57517434468381
C        12.64494045474811   14.84565925509920   21.24903138104413
C        13.51357897055851   15.17456280806606   23.48879591003261
C        14.13803601223825   14.24913911755901   24.39862570584356
C        15.72959018118225   17.07970247905424   18.88605262708030
C        13.75022860582820   12.91807940278435   24.00105425710446
C        15.42309375445191   14.50030882229207   24.85568310951037
C        16.88368016195423   16.77443259169040   18.11948069464315
C        16.08997926687308   15.72171511143950   24.49027937920082
C        15.47973659882391   16.59917513557933   23.59893329552088
C        14.20687120848108   16.28747659555283   23.02647243958188
C        19.23923662841979   14.06413487250930   22.59340610804370
C        16.24719186464873   17.29086981044308   22.60531442974796
C        19.19855002474637   15.45346618153164   22.57984283406136
C        19.29647348958245   16.13916601255320   21.32634121203893
C        17.43934663926816   11.61137807487699   19.30159869646949
C        17.69266592013650   11.34963075067485   20.72007545846056
C        18.48010563199589   12.07650182829012   21.61613171373712
C        18.04344469236516   16.92271554008914   18.92896103718440
C        17.60697536120969   17.48711160106801   20.17815897025447
C        16.14812086470616   17.53255029046056   20.18273624245629
C        15.47443981209354   17.37459637392353   21.38861143673396
C        14.20441962570733   16.68750619705670   21.63319078557988
C        13.41700653565998   15.96064784410752   20.73708537894809
C        13.65370195405439   15.69394201942041   19.31667557440883
C        14.67869354579757   16.17619290972094   18.51054533335440
C        15.24040983928577   15.30254641905238   17.48504089418712
C        16.63401706747825   15.62167800201447   17.32501723848106
C        17.58466967804161   14.59658912273646   17.32119953560955
C        17.16194704456938   13.23030151192590   17.47739636776154
C        18.75573381928354   14.75548436813912   18.11210751684004
C        15.81657900223514   12.92695042485251   17.36628577501979
C        14.83607054547921   13.98436822693817   17.37020827007625
C        13.70750446500441   13.52537439990521   18.12298660782058
C        18.97599540975833   13.57867782593769   18.87312404715852
C        13.10458758349604   14.38992112670896   19.02910579197025
C        12.51203302430312   13.85975430306800   20.22173899376001
C        17.99442065660600   12.60034126769142   18.49736141645018
C        12.60457782106071   12.50436706087008   20.52393849845245
C        13.38922474745378   11.65090402662281   19.67066187819224
C        13.92435537873015   12.15145041864694   18.49546402848894
C        15.27663006199131   11.83318513825763   18.11674698245488
C        19.26004699925335   13.29210026901964   21.37354230491417
C        19.46389888147132   13.95672858237607   20.16949879667784
C        16.09661098781794   11.16323667599316   19.01720092833621
C        19.52851866054294   15.41491143547103   20.17053055444575
C        15.52766022180997   10.60755691065300   20.20973166168273
C        18.99406109203997   15.89757354855388   18.92513840536613
C        16.52457910377014   10.66171659076828   21.23357349986521
C        16.12344227496825   10.75313712650658   22.56157443434044
C        16.92625374974664   11.49422766922321   23.47519781494990
C        18.08653439605405   12.10353210180272   23.01102511678219
C        18.49538071791113   13.34702459624481   23.58689657181102
C        18.31594231932491   17.19660621270207   21.33026034786834
C        17.62943533851988   17.14565005369596   22.58612647083706
C        18.24507343464377   16.13985191609121   23.41236209619722
C        17.49375944736183   15.43973803405977   24.34156609587745
C        17.66969676034577   14.01812242528411   24.48400612536022
C        16.40288333583403   13.44370358297143   24.85176447387647
C        16.05388397487389   12.18303583317227   24.39097348051479
C        14.69595682973720   11.89819743437432   23.99728976955534
C        14.73907762145099   10.96939115264876   22.89479914700850
C        13.79352334336905   11.03507341369064   21.88238035743681
C        14.18425510941563   10.80077900992007   20.51763978011860
