124
 energy: -275.123882321806 gnorm: 0.000302852838 xtb: 6.4.1 (a3dbbd7)
C         1.01997500000000   -0.94889000000000    3.16588700000000
C         2.36312300000000   -0.98916900000000    2.33814500000000
C         2.21403300000000   -2.26503200000000    1.44508100000000
C         0.07016700000000   -1.67739300000000    2.25451400000000
C         0.72457500000000   -2.41003400000000    1.36571100000000
C        -1.34260700000000   -1.90291300000000    2.66290000000000
C        -2.04411700000000   -0.55737100000000    3.03188500000000
C         0.52520300000000    0.43271300000000    3.66734500000000
C        -1.06627900000000    0.63179300000000    3.45584100000000
C         1.19290000000000    1.74544500000000    2.99823700000000
C         2.53249900000000    0.22383600000000    1.49414500000000
C         2.49098000000000    1.56675000000000    2.14781400000000
C         3.00797900000000    0.24652100000000    0.25889900000000
C         2.82042600000000   -2.27089900000000    0.00102700000000
C         3.49588600000000   -0.94224200000000   -0.49725000000000
C         1.73429700000000   -2.50143900000000   -1.03639900000000
C         0.09084900000000   -3.48474500000000    0.55710500000000
C         0.68540100000000   -3.56490300000000   -0.89699500000000
C        -2.17963100000000   -2.51535800000000    1.48644000000000
C        -1.31932200000000   -3.01734100000000    0.36057300000000
C        -2.84458000000000   -0.26879500000000    1.75790900000000
C        -2.91534400000000   -1.31163000000000    0.95139400000000
C        -3.41046600000000    1.08857600000000    1.46199400000000
C        -1.11425900000000    1.64671600000000    2.35660500000000
C         0.10932700000000    2.23857400000000    2.12088800000000
C        -2.15701700000000    1.89552800000000    1.50445700000000
C         0.28758000000000    3.03907900000000    1.03550900000000
C         2.79538300000000    2.60327600000000    0.93216800000000
C         3.41538600000000    1.62940400000000   -0.17973900000000
C         1.59961100000000    3.50591200000000    0.46843700000000
C         3.09226100000000    1.90450700000000   -1.68101300000000
C         3.14482000000000   -0.85610300000000   -2.01299800000000
C         1.90974000000000   -1.73780200000000   -2.10187800000000
C         2.96665400000000    0.59427500000000   -2.62591500000000
C         1.08498600000000   -1.78655800000000   -3.34502800000000
C        -0.55786600000000   -3.37502900000000   -1.85708500000000
C        -1.63827900000000   -2.84913200000000   -0.91392800000000
C        -0.34048400000000   -2.47748700000000   -3.14246200000000
C        -3.70959600000000   -1.39301500000000   -0.30924600000000
C        -2.91755500000000   -2.22287800000000   -1.40836400000000
C        -3.97687800000000    1.30404100000000   -0.00949100000000
C        -3.98662100000000    0.02463800000000   -0.95457500000000
C        -1.98258700000000    2.67766400000000    0.38054400000000
C        -0.76844600000000    3.26378400000000    0.15883500000000
C        -3.14024200000000    2.60775600000000   -0.55879100000000
C         1.18149400000000    3.40109200000000   -0.98722000000000
C         1.77131800000000    2.60152300000000   -1.86322200000000
C        -0.28294500000000    3.88653300000000   -1.10930800000000
C         1.55932600000000    0.71847600000000   -3.17973900000000
C         0.75852500000000   -0.31961600000000   -3.56032300000000
C         0.98807000000000    1.98004100000000   -2.89558200000000
C        -1.27867800000000   -1.29276600000000   -3.08230300000000
C        -2.41519100000000   -1.15766900000000   -2.34086300000000
C        -2.94290400000000    0.10980900000000   -2.02501000000000
C        -0.63260800000000   -0.12686800000000   -3.51649200000000
C        -2.59742700000000    2.64357900000000   -2.03391400000000
C        -1.12187600000000    3.34405600000000   -2.32359700000000
C        -0.36069300000000    2.22275300000000   -2.99345100000000
C        -2.38635100000000    1.24362300000000   -2.52331300000000
C        -1.18525200000000    1.12444800000000   -3.24584500000000
O         1.16530000000000   -1.82151700000000    4.27948200000000
H         1.32370800000000   -1.25237400000000    5.05474100000000
O        -2.95905400000000   -0.77749300000000    4.06996700000000
H        -2.72662900000000   -1.62349000000000    4.49090700000000
O         3.46796900000000   -1.08904500000000    3.19459500000000
H         3.46728900000000   -2.00117400000000    3.53243200000000
O        -1.51942100000000    1.17521700000000    4.66580500000000
H        -2.48336100000000    1.07517100000000    4.69035900000000
O         0.82067700000000    0.46301100000000    5.03192400000000
H         0.50155500000000    1.31648400000000    5.36620100000000
O         2.70753300000000   -3.37731500000000    2.16107800000000
H         3.39006400000000   -3.77415400000000    1.57343100000000
O        -1.36533500000000   -2.78713500000000    3.76343400000000
H        -0.51325100000000   -2.69146500000000    4.23235100000000
O         0.22754200000000   -4.72646900000000    1.21315400000000
H         0.93931200000000   -4.64138200000000    1.86829900000000
O         3.77137500000000   -3.30143400000000   -0.06218500000000
H         4.63620500000000   -2.85262700000000   -0.17539900000000
O         4.88273900000000   -1.06095600000000   -0.31026800000000
H         5.29768600000000   -0.99053900000000   -1.18690900000000
O         4.20244700000000   -1.50730800000000   -2.67228700000000
H         4.00068700000000   -1.52111900000000   -3.61817300000000
O         1.23603400000000   -4.83305300000000   -1.12354800000000
H         1.09734200000000   -5.34544800000000   -0.30072000000000
O         1.81562700000000   -2.39709200000000   -4.36434500000000
H         1.16594900000000   -2.83072200000000   -4.94530800000000
O         3.91076700000000    0.70175200000000   -3.65389500000000
H         4.23672800000000    1.62204900000000   -3.63723000000000
O        -0.58086000000000   -3.23896600000000   -4.29706700000000
H        -0.86360400000000   -4.12471700000000   -3.99609400000000
O        -0.96642900000000   -4.65269700000000   -2.29808500000000
H        -0.20305700000000   -5.24477800000000   -2.12370000000000
O        -4.31921300000000    1.51425400000000    2.43436500000000
H        -5.20215200000000    1.20845900000000    2.18566000000000
O        -4.95705200000000   -1.97710000000000   -0.03431100000000
H        -4.80060200000000   -2.86153200000000    0.32261400000000
O        -3.08963600000000   -3.48549900000000    1.93282300000000
H        -2.67344200000000   -3.95891900000000    2.66819400000000
O        -3.79629600000000   -3.16667800000000   -1.96045300000000
H        -3.28177100000000   -3.79789800000000   -2.47820300000000
O        -5.30655600000000    1.70680800000000    0.14782500000000
H        -5.79918300000000    1.29175600000000   -0.59541600000000
O        -5.25761500000000   -0.02041700000000   -1.57412700000000
H        -5.65685600000000   -0.87633900000000   -1.33711300000000
O         4.09245800000000    2.73180300000000   -2.21057800000000
H         4.87817100000000    2.59524800000000   -1.64143300000000
O         4.82272000000000    1.69417200000000   -0.07978000000000
H         5.02907500000000    2.24007100000000    0.69966100000000
O         3.58657400000000    1.68040000000000    3.03290200000000
H         3.84928200000000    0.78861600000000    3.31328200000000
O         3.83685900000000    3.43318300000000    1.34551500000000
H         3.47291900000000    4.32562500000000    1.46932600000000
O        -0.33447000000000    5.28809700000000   -1.04847600000000
H        -0.62869000000000    5.58970500000000   -1.92663000000000
O        -1.32336100000000    4.42382300000000   -3.19080100000000
H        -2.23187500000000    4.32170400000000   -3.54272200000000
O         1.45438400000000    2.66470300000000    4.02062700000000
H         2.42245100000000    2.67127700000000    4.14502000000000
O         1.88726000000000    4.83707800000000    0.84201200000000
H         1.19715900000000    5.39427700000000    0.44863400000000
O        -3.52922900000000    3.31066900000000   -2.83717200000000
H        -4.04477600000000    3.87581500000000   -2.22430000000000
O        -3.97332700000000    3.73255700000000   -0.42144000000000
H        -4.77965800000000    3.43174500000000    0.04103600000000
