62
 energy: -137.563166855083 gnorm: 0.000080300173 xtb: 6.4.1 (a3dbbd7)
C         0.21482488136296   -0.06428330616500   -3.50796145643944
C         0.28015264213671    1.34594291447801   -3.23914592876961
C        -1.03211234700963    1.78556472993145   -2.84226767516101
C        -1.15542760391538   -0.50455838105195   -3.26853686444318
C        -1.91540458392779    0.64454908650177   -2.86506437872618
C        -1.41638849648256   -1.73772303512531   -2.72087043897941
C        -0.34357649721880   -2.78513908385649   -2.50790903898159
C         1.26048476952625   -0.88731486109801   -3.13927709999881
C         1.02054007502833   -2.18423344077817   -2.55098032191976
C         2.43011115895100   -0.32371053495709   -2.51659144547823
C         1.40816848910575    1.89752221201270   -2.63671683601924
C         2.50395026664312    1.04150075109823   -2.26836550357847
C         1.25679582846499    2.89294872561836   -1.60625632075533
C        -1.17688627724451    2.75463394360534   -1.86020695035920
C        -0.00996071686819    3.31505594148586   -1.22672858864254
C        -2.20794593117154    2.61906127809565   -0.85958031039753
C        -2.91532022095330    0.52125220062227   -1.90894248519055
C        -3.06256907923462    1.52475477853003   -0.88488538003753
C        -2.42023050448664   -1.86400782687305   -1.71498019632462
C        -3.17415466624147   -0.76110609112224   -1.32010251993648
C        -0.67354758287891   -3.27941316977364   -1.11449923520889
C        -1.96627233012758   -2.81223077015160   -0.72843629176710
C         0.28449938856085   -3.49053494199422   -0.15568154190947
C         1.98378103844945   -2.41449932996638   -1.58648822477993
C         2.88622209018510   -1.26469868133289   -1.53506929300703
C         1.66759886421381   -3.06141692994532   -0.36064623601451
C         3.41224701456488   -0.82799293906746   -0.34579684099866
C         3.02878155923314    1.49936505761094   -1.01328711000945
C         2.26308276030547    2.64944491178726   -0.60124565157317
C         3.45986867658452    0.57160296279036   -0.06774488889017
C         1.96540740106892    2.83891290822828    0.73954076582943
C        -0.31861332864234    3.51795861706643    0.16765330180162
C        -1.67520224841288    3.08807542601404    0.39160584593287
C         0.65128894352807    3.28616915949715    1.13325807409761
C        -2.01319892424740    2.44119764859652    1.57632451712479
C        -3.41468314753027    0.85615638315158    0.34127618588479
C        -3.48629544142968   -0.55962415536989    0.07222297410541
C        -2.89904513598992    1.30549435467862    1.54918348634239
C        -2.28124817856563   -2.62136651452138    0.61506261482161
C        -3.04972639895254   -1.47109021843900    1.02136397741379
C        -0.01997269089038   -3.29112954964501    1.23154486267810
C        -1.28585365656963   -2.86902702898128    1.61915352419796
C         2.18131440783692   -2.61771472845784    0.84363682679499
C         3.27029669240007   -1.60419448964853    0.94736725203413
C         1.15396499214957   -2.73400370635358    1.85196749185746
C         3.14981465797819    0.76891647277170    1.32631041206687
C         2.42145305787022    1.88855170834974    1.72208752677878
C         2.91089664274172   -0.50419468616322    1.92425221173674
C         0.30124861022910    2.61445782659219    2.35831238797693
C        -1.00609911137432    2.19896345735170    2.57448895104941
C         1.39844642071016    1.75202700390402    2.71855221518167
C        -2.43964865534850    0.35678678671936    2.53387937707773
C        -2.51633174151916   -1.00550664999835    2.27861244527524
C        -1.42584822125976   -1.87212656678295    2.64666143055249
C        -1.26634771614448    0.90764026465659    3.16395572978316
C         1.02030659276771   -1.78878415687953    2.84967676664581
C         1.91624083808429   -0.63732402451334    2.86323146303655
C         1.14868579620649    0.50394656472386    3.27453087837173
C        -0.28631335468287   -1.33783055702124    3.24293766906753
C        -0.20998811949010    0.07572642223177    3.50530077361535
Cl        4.85209295744484   -2.38668695368933    1.40607645288050
Cl       -0.50413775152065   -4.13382117731922   -3.72483355089563
