140
 energy: -311.638136768951 gnorm: 0.000164793192 xtb: 6.4.1 (a3dbbd7)
C        -3.29165800000000    0.81330100000000    1.73185100000000
C        -2.22424200000000    0.47828800000000    2.86296700000000
C        -2.06165700000000   -1.06100900000000    2.85297200000000
C        -3.45397800000000   -0.55952000000000    0.94453400000000
C        -2.29545300000000   -1.39237000000000    1.39850100000000
C        -3.73691600000000   -0.55048400000000   -0.57928600000000
C        -3.30726700000000    0.70733600000000   -1.41114500000000
C        -3.01342400000000    2.15437900000000    0.91551800000000
C        -3.00307700000000    2.04738800000000   -0.68079300000000
C        -1.67994300000000    3.00344800000000    1.19696100000000
C        -0.90262000000000    1.11962300000000    2.67625900000000
C        -0.85903400000000    2.59431000000000    2.42286600000000
C         0.24147100000000    0.65283000000000    3.15495000000000
C        -0.70495800000000   -1.66632300000000    3.37328300000000
C         0.48178800000000   -0.68987500000000    3.75505200000000
C        -0.09963000000000   -2.48147700000000    2.26589400000000
C        -2.24056500000000   -2.81747600000000    0.97201500000000
C        -0.83363500000000   -3.39529000000000    1.33923200000000
C        -3.01805200000000   -1.75835900000000   -1.35306900000000
C        -2.33522400000000   -2.93854500000000   -0.58306000000000
C        -2.11571300000000    0.24791600000000   -2.21363500000000
C        -1.97626200000000   -1.06528400000000   -2.20453900000000
C        -1.50513000000000    1.17455800000000   -3.20933700000000
C        -1.60321100000000    2.48139800000000   -1.08638400000000
C        -0.89376800000000    2.94802100000000   -0.07832600000000
C        -1.17568400000000    2.56334800000000   -2.51410200000000
C         0.35966500000000    3.74515900000000   -0.17727800000000
C         0.67647200000000    2.96188900000000    2.39732100000000
C         1.35903700000000    1.67629000000000    3.06382000000000
C         1.31570400000000    3.36951000000000    1.01523900000000
C         2.29321000000000    0.90006500000000    2.22708700000000
C         1.77753000000000   -1.39179100000000    3.18506400000000
C         1.20625900000000   -2.30908300000000    2.15261500000000
C         2.88523600000000   -0.39308000000000    2.65526900000000
C         2.11796200000000   -3.01646100000000    1.21130400000000
C        -0.08499500000000   -3.35264400000000    0.03404400000000
C        -0.87018600000000   -3.06361800000000   -0.98869600000000
C         1.36324100000000   -3.70076100000000   -0.00117400000000
C        -1.11377400000000   -1.82866700000000   -3.15505200000000
C        -0.42380800000000   -3.04637900000000   -2.41092500000000
C        -0.15218300000000    0.61321000000000   -3.73291800000000
C         0.04020100000000   -0.95307300000000   -3.74207300000000
C         0.38853600000000    2.75916800000000   -2.66315500000000
C         1.18676000000000    3.49588400000000   -1.51404600000000
C         0.83694100000000    1.35464000000000   -2.87660800000000
C         2.17171400000000    2.34992700000000    0.35181200000000
C         2.66308400000000    1.25024800000000    0.95672900000000
C         2.53979700000000    2.76529300000000   -1.01742100000000
C         3.66364600000000   -0.88073800000000    1.34131300000000
C         2.90021500000000   -1.90095400000000    0.57037600000000
C         3.82504500000000    0.43663300000000    0.47580300000000
C         2.06583200000000   -3.13880600000000   -1.28548100000000
C         1.13825900000000   -2.86096800000000   -2.55294100000000
C         1.23528700000000   -1.41066700000000   -2.93879000000000
C         2.77113900000000   -1.91007600000000   -0.74226900000000
C         1.99344400000000    0.83676500000000   -2.50933600000000
C         3.11025900000000    1.56228500000000   -1.84150500000000
C         3.91661900000000    0.37976900000000   -1.08463200000000
C         2.19312700000000   -0.57717800000000   -2.54795400000000
C         3.37520500000000   -0.96002900000000   -1.70820500000000
O        -4.51612700000000    1.00796300000000    2.39617500000000
H        -4.32883600000000    0.91316500000000    3.35545800000000
O        -5.11704000000000   -0.65630100000000   -0.78885400000000
H        -5.50308300000000   -1.02897800000000    0.02469700000000
O        -3.23310400000000   -3.60133200000000    1.59127500000000
H        -3.57996200000000   -4.18437100000000    0.88683400000000
O        -2.73840000000000    0.87852600000000    4.11352300000000
H        -2.43124900000000    1.78956400000000    4.28010900000000
O        -3.00946800000000   -4.13832300000000   -0.85524400000000
H        -3.58120800000000   -3.95747400000000   -1.62756100000000
O        -3.97100300000000   -2.33240600000000   -2.21259700000000
H        -4.76413400000000   -1.76159500000000   -2.16455300000000
O        -3.11815800000000   -1.59600300000000    3.62993000000000
H        -2.72893900000000   -2.29408800000000    4.19169900000000
O        -4.30428300000000    0.92543900000000   -2.38988700000000
H        -4.77644400000000    1.74026000000000   -2.13532300000000
O        -3.92033200000000    2.98831900000000   -1.17723800000000
H        -4.14184200000000    3.58665100000000   -0.43923800000000
O        -4.04136400000000    3.04770100000000    1.25474200000000
H        -4.74034700000000    2.51893400000000    1.69417000000000
O        -0.96860200000000   -2.48520800000000    4.48131400000000
H        -0.68301600000000   -1.97194400000000    5.26436700000000
O         0.56293000000000   -0.57299200000000    5.14847400000000
H         1.35290000000000   -1.06755600000000    5.42891700000000
O         2.89799900000000   -3.93585400000000    1.92744200000000
H         3.04024900000000   -4.69751500000000    1.33965500000000
O         1.52469100000000   -5.09220700000000    0.06590100000000
H         0.82531100000000   -5.43845800000000    0.64197200000000
O         2.34304000000000   -2.15946700000000    4.22566600000000
H         2.72358600000000   -2.95797300000000    3.82771800000000
O        -0.91044500000000   -4.70695300000000    1.82933700000000
H        -1.79432500000000   -4.79366900000000    2.22966900000000
O         3.11501300000000   -3.98750500000000   -1.68460500000000
H         2.79992000000000   -4.47190000000000   -2.47293300000000
O        -0.79804400000000   -4.24171800000000   -3.03858300000000
H        -1.52607100000000   -3.99677900000000   -3.65196100000000
O         1.57422000000000   -3.70760800000000   -3.58178500000000
H         0.82392600000000   -4.31033300000000   -3.76964400000000
O         3.79537900000000   -0.16713300000000    3.70173700000000
H         4.43225100000000   -0.90017100000000    3.69680300000000
O         4.91155100000000   -1.38564300000000    1.70625600000000
H         5.50821900000000   -0.61128600000000    1.72044800000000
O         4.99078300000000    1.06188700000000    0.97646700000000
H         5.55070700000000    1.30117200000000    0.21999700000000
O        -1.92194800000000   -2.32388900000000   -4.18546100000000
H        -1.42548700000000   -2.14758500000000   -5.01287300000000
O        -2.38945900000000    1.38039900000000   -4.27828900000000
H        -3.29077600000000    1.20301200000000   -3.94494200000000
O         3.94281800000000    2.11637200000000   -2.83043500000000
H         4.83173400000000    1.73594000000000   -2.70115200000000
O         0.58972600000000    3.44455200000000   -3.88023800000000
H         0.97990300000000    4.30950200000000   -3.65151800000000
O         5.27238700000000    0.51148800000000   -1.43474400000000
H         5.51132200000000   -0.31309100000000   -1.90761400000000
O         4.41852300000000   -1.58218300000000   -2.42725500000000
H         4.26318200000000   -2.54386000000000   -2.39052000000000
O         1.88943900000000    2.03966400000000    4.30199000000000
H         2.60523700000000    1.42570200000000    4.52223900000000
O        -1.47494000000000    3.21638900000000    3.54833400000000
H        -0.76640400000000    3.71033700000000    4.00253600000000
O         0.80498100000000    4.03791700000000    3.27635900000000
H         1.62866600000000    4.50196400000000    3.05768400000000
O        -1.85366400000000    3.60643400000000   -3.13404300000000
H        -2.22676000000000    3.24893400000000   -3.96219900000000
O        -2.04152200000000    4.35969500000000    1.34838500000000
H        -2.39610600000000    4.46353900000000    2.24719100000000
O         3.54818600000000    3.74656800000000   -0.92721700000000
H         3.86514700000000    3.90024200000000   -1.83352600000000
O         1.57066900000000    4.73993300000000   -2.02773400000000
H         1.06312800000000    5.41586000000000   -1.53973300000000
O         0.04400400000000    5.11356300000000   -0.14410900000000
H        -0.75050000000000    5.22637600000000    0.40834800000000
O        -4.60524500000000   -1.21692300000000    1.47122100000000
H        -4.41014700000000   -1.49323100000000    2.38749200000000
O         0.20524100000000   -1.39157300000000   -5.07211000000000
H         0.35754300000000   -0.59725400000000   -5.61379800000000
O         0.04854700000000    1.03558900000000   -5.06526800000000
H         0.17063400000000    2.00060900000000   -5.05122900000000
O         2.13820800000000    4.48793300000000    1.30271400000000
H         2.77077400000000    4.59513600000000    0.57087400000000
