152
 energy: -339.009575874658 gnorm: 0.000310624138 xtb: 6.4.1 (a3dbbd7)
C        -3.91081600000000    0.32034100000000   -0.42879000000000
C        -3.74974000000000   -1.21436400000000    0.06097400000000
C        -2.95862400000000   -1.93996800000000   -1.13049500000000
C        -3.14841400000000    0.36089800000000   -1.82327600000000
C        -2.23391900000000   -0.82457500000000   -1.82092400000000
C        -2.58753600000000    1.71582700000000   -2.32982200000000
C        -2.13993600000000    2.75557800000000   -1.26075000000000
C        -3.63315200000000    1.44469900000000    0.64687600000000
C        -2.80042500000000    2.74876900000000    0.15076800000000
C        -2.95508800000000    1.06674100000000    2.03440000000000
C        -3.12032600000000   -1.51852500000000    1.45008700000000
C        -2.99193100000000   -0.39070000000000    2.53271900000000
C        -1.77931500000000   -2.15049100000000    1.39393800000000
C        -2.03986500000000   -3.20146200000000   -0.88817800000000
C        -1.54191300000000   -3.37744100000000    0.60481000000000
C        -0.71069700000000   -3.21890000000000   -1.76516900000000
C        -1.59275600000000   -1.12904000000000   -3.13116500000000
C        -0.56117000000000   -2.32981900000000   -3.03810700000000
C        -1.31052300000000    1.55450100000000   -3.32652600000000
C        -0.76676300000000    0.11105700000000   -3.61196100000000
C        -0.64921100000000    2.67218400000000   -1.29846500000000
C        -0.19683200000000    2.51820500000000   -2.70309800000000
C         0.15490100000000    3.09054100000000   -0.35736600000000
C        -1.73599300000000    3.03487400000000    1.30742200000000
C        -1.61508700000000    1.71946600000000    1.99405400000000
C        -0.35306100000000    3.60750700000000    0.93796400000000
C        -0.61871500000000    1.42328600000000    2.79213200000000
C        -1.71386300000000   -0.82994900000000    3.44530100000000
C        -1.14673100000000   -2.09698900000000    2.74458500000000
C        -0.62999500000000    0.27515500000000    3.75335200000000
C         0.30345700000000   -2.09327700000000    2.44617300000000
C        -0.00319300000000   -3.68973200000000    0.51954000000000
C         0.35791600000000   -2.98170100000000   -0.73927400000000
C         0.87366400000000   -3.27372200000000    1.72523800000000
C         1.54813200000000   -2.46816700000000   -0.94283900000000
C         0.87286200000000   -1.63490900000000   -3.19258800000000
C         0.56392000000000   -0.19517800000000   -3.00046600000000
C         2.03991500000000   -2.09610800000000   -2.29891600000000
C         1.29478400000000    2.12233000000000   -2.76640400000000
C         1.46880200000000    0.65710700000000   -2.58994200000000
C         1.61408900000000    3.40312300000000   -0.48371900000000
C         2.33096800000000    2.73663900000000   -1.71726400000000
C         0.87388400000000    3.34687300000000    1.91775000000000
C         0.60612100000000    2.26267900000000    3.02608400000000
C         2.09386400000000    3.04572900000000    0.95391400000000
C         0.89875500000000   -0.11227100000000    3.77605600000000
C         1.20736700000000   -1.22681700000000    2.84546400000000
C         1.68814000000000    1.16727000000000    3.27608400000000
C         2.40096400000000   -2.84596400000000    1.47095600000000
C         2.71798300000000   -2.62966900000000   -0.02861200000000
C         2.61079000000000   -1.63269400000000    2.45169600000000
C         3.26021000000000   -1.11436700000000   -1.99577600000000
C         2.91150200000000    0.35713700000000   -2.36535400000000
C         3.39972800000000    1.53242600000000   -1.45336600000000
C         3.72152400000000   -1.49950700000000   -0.48431700000000
C         2.54949400000000    1.62743100000000    0.98633500000000
C         2.44214900000000    0.82316600000000    2.02835400000000
C         3.37926900000000   -0.36415400000000    1.95166000000000
C         3.64387200000000    1.21188800000000    0.04583600000000
C         4.01380500000000   -0.28176200000000    0.48222600000000
O        -5.26062400000000    0.44506700000000   -0.81074300000000
H        -5.67182000000000    1.11410200000000   -0.23223600000000
O        -3.60035900000000    2.36748500000000   -3.05064100000000
H        -4.26195100000000    1.68750200000000   -3.28259200000000
O        -2.57601000000000   -1.44776900000000   -4.07732400000000
H        -2.16179400000000   -2.04881600000000   -4.72106900000000
O        -5.03233500000000   -1.77056800000000    0.10583400000000
H        -5.60777000000000   -1.16145200000000   -0.40855100000000
O        -0.58939100000000   -0.04365900000000   -5.00759900000000
H        -1.01742400000000    0.72904100000000   -5.42280400000000
O        -1.68819900000000    2.08452100000000   -4.56121800000000
H        -2.56501800000000    2.50529900000000   -4.41798100000000
O        -3.99103700000000   -2.38023700000000   -2.00327900000000
H        -3.87404800000000   -3.34020100000000   -2.14103800000000
O        -2.36959100000000    4.03668500000000   -1.82946500000000
H        -3.22238500000000    4.35127400000000   -1.47956800000000
O        -3.72059900000000    3.80010900000000    0.14862500000000
H        -3.66278900000000    4.19959600000000    1.04245200000000
O        -4.91408500000000    1.91352500000000    0.98292400000000
H        -4.83166400000000    2.27429300000000    1.89309400000000
O        -2.77332700000000   -4.34394600000000   -1.23155900000000
H        -3.10230800000000   -4.72041000000000   -0.38900400000000
O        -2.21392800000000   -4.48305200000000    1.17354000000000
H        -1.61267800000000   -5.24752700000000    1.09378200000000
O         0.13218700000000   -5.09133500000000    0.32990800000000
H         0.63334200000000   -5.42027200000000    1.10205800000000
O         0.88595300000000   -4.38800900000000    2.60465600000000
H         1.80943100000000   -4.45224500000000    2.93058100000000
O         3.20667800000000   -3.87323900000000    1.96892900000000
H         3.68377200000000   -4.26525800000000    1.21620600000000
O         5.41098500000000   -0.31109800000000    0.64382600000000
H         5.71540400000000    0.61884800000000    0.57518600000000
O         3.19229300000000    3.84441800000000    1.32189800000000
H         2.82636900000000    4.59120400000000    1.83354400000000
O         2.56238200000000    1.61385700000000    4.27605100000000
H         2.75051000000000    0.84412800000000    4.84478800000000
O         3.22093300000000   -2.14879100000000    3.59733500000000
H         3.92848000000000   -1.52419400000000    3.84602200000000
O         4.41389500000000   -0.12002600000000    2.87273300000000
H         5.24979300000000   -0.29180200000000    2.38786200000000
O         1.17275600000000    4.55689800000000    2.55254200000000
H         0.81415900000000    4.47440500000000    3.46124600000000
O         0.42286800000000    2.96145400000000    4.23768000000000
H         1.19716200000000    2.74593000000000    4.79417000000000
O         1.30583600000000   -0.44308200000000    5.06969800000000
H         0.64457400000000   -0.02107700000000    5.65816400000000
O        -1.46260800000000   -3.21942500000000    3.56143700000000
H        -0.78939800000000   -3.90403100000000    3.42366600000000
O         4.78150200000000    1.97621200000000    0.42605900000000
H         4.48553100000000    2.84953000000000    0.74149100000000
O        -2.23998400000000   -1.19683600000000    4.69143300000000
H        -2.21973000000000   -2.17146700000000    4.72858900000000
O         1.70828500000000    4.80944500000000   -0.60531100000000
H         2.24431000000000    4.98126000000000   -1.40367400000000
O         1.75679700000000    2.43663100000000   -4.06506700000000
H         1.31587200000000    3.26560900000000   -4.31685400000000
O        -4.13282200000000   -0.46145300000000    3.34502200000000
H        -4.36817100000000   -1.40820700000000    3.39771200000000
O         3.03084700000000    3.75812600000000   -2.36723800000000
H         3.97749400000000    3.48977100000000   -2.36015700000000
O        -3.62460100000000    1.85375800000000    3.01777900000000
H        -4.02716000000000    1.24214300000000    3.65771200000000
O         4.34544400000000   -1.44397900000000   -2.80487400000000
H         4.23412400000000   -2.36612400000000   -3.09047000000000
O         2.58657500000000   -3.25888700000000   -2.90473200000000
H         2.33145800000000   -3.20518800000000   -3.84570400000000
O         4.91177400000000   -2.22349800000000   -0.61171100000000
H         5.62533700000000   -1.62364900000000   -0.86753300000000
O        -0.76539400000000   -3.11194700000000   -4.17932900000000
H        -0.68067500000000   -4.04274400000000   -3.91648200000000
O         4.64109400000000    1.95283200000000   -1.95225800000000
H         4.76063200000000    1.46967800000000   -2.80320900000000
O        -4.11981900000000    0.07475500000000   -2.82175000000000
H        -4.35020200000000   -0.87277100000000   -2.79481600000000
O         1.32895000000000   -1.84487600000000   -4.50843200000000
H         0.72387400000000   -1.37362200000000   -5.10734800000000
O        -0.24766200000000    3.76268700000000   -3.36088600000000
H        -1.07706500000000    4.20021400000000   -3.10208500000000
O        -0.88851100000000    0.79525200000000    5.04115700000000
H        -1.66452800000000    0.32233100000000    5.38948000000000
O         3.53323000000000    0.54974200000000   -3.62901700000000
H         3.02160800000000    1.21584900000000   -4.12747100000000
O        -0.55887600000000    4.99925600000000    0.83175600000000
H         0.22861300000000    5.38112500000000    0.40734400000000
O        -2.33887400000000    3.94726000000000    2.20089600000000
H        -1.84587000000000    4.78211600000000    2.11057800000000
O        -0.51964600000000   -4.53896200000000   -2.24025400000000
H        -0.33601600000000   -5.12053700000000   -1.48667700000000
O        -3.91020300000000   -2.53131600000000    2.07926200000000
H        -4.65577200000000   -2.72603000000000    1.48153300000000
O         3.25321400000000   -3.89263800000000   -0.40953800000000
H         3.39297300000000   -3.90561200000000   -1.36889200000000
