148
 energy: -329.929370779339 gnorm: 0.000395920366 xtb: 6.4.1 (a3dbbd7)
C        -3.80692000000000    0.74231800000000   -0.46796200000000
C        -3.58074600000000    0.47994500000000    1.08679300000000
C        -3.37190800000000   -1.06257100000000    1.24314200000000
C        -3.40820500000000   -0.64726600000000   -1.13450700000000
C        -2.69480500000000   -1.40912300000000   -0.05102500000000
C        -2.79250500000000   -0.65617600000000   -2.55622200000000
C        -1.98389800000000    0.60189900000000   -2.99956400000000
C        -3.17636200000000    2.09345100000000   -1.02333600000000
C        -2.31200700000000    2.00040200000000   -2.38993600000000
C        -2.27348100000000    2.99862100000000   -0.05543300000000
C        -2.43134200000000    1.20237300000000    1.67102900000000
C        -2.28617600000000    2.66506900000000    1.44040600000000
C        -1.73608300000000    0.78304900000000    2.70900800000000
C        -2.63429800000000   -1.61867000000000    2.52232600000000
C        -1.83873300000000   -0.53123200000000    3.38737000000000
C        -1.55973300000000   -2.76581200000000    2.19580700000000
C        -2.40459700000000   -2.83306400000000   -0.33784100000000
C        -1.55054600000000   -3.52370600000000    0.81652300000000
C        -1.80063500000000   -1.91900400000000   -2.82114800000000
C        -1.54086100000000   -2.93022200000000   -1.64482600000000
C        -0.56395100000000    0.15363600000000   -2.90144000000000
C        -0.45698100000000   -1.25003900000000   -3.37619200000000
C         0.47105500000000    0.95008700000000   -2.84353000000000
C        -0.99648700000000    2.87944600000000   -2.12753600000000
C        -0.90892500000000    2.94740600000000   -0.64592500000000
C         0.33777000000000    2.42875500000000   -2.75695600000000
C         0.19523800000000    3.20641600000000    0.01522700000000
C        -1.00677200000000    3.08834400000000    2.30327500000000
C        -0.77964500000000    1.83644800000000    3.21895300000000
C         0.25576100000000    3.55021200000000    1.47823000000000
C         0.54388900000000    1.18998100000000    3.07649700000000
C        -0.41314200000000   -1.12915600000000    3.62599500000000
C        -0.29651200000000   -2.04064100000000    2.45570300000000
C         0.76548500000000   -0.11912100000000    3.77631700000000
C         0.88791500000000   -2.24335300000000    1.83266900000000
C        -0.10158500000000   -3.73375800000000    0.14445200000000
C        -0.15921100000000   -2.87642800000000   -1.06923900000000
C         1.15513800000000   -3.42475100000000    0.97288600000000
C         0.91352000000000   -1.85726600000000   -3.01511300000000
C         0.92102500000000   -2.38071500000000   -1.62432800000000
C         1.89398600000000    0.59584200000000   -3.14842400000000
C         2.22371700000000   -0.94438000000000   -3.08043100000000
C         1.70567400000000    2.85577100000000   -2.06008700000000
C         1.54865200000000    3.43080900000000   -0.60121800000000
C         2.63318300000000    1.57836500000000   -2.19003600000000
C         1.68506300000000    3.01502800000000    1.87428900000000
C         1.62900300000000    1.66742000000000    2.49836800000000
C         2.50330300000000    2.90691800000000    0.51908600000000
C         2.14430400000000   -0.56454900000000    3.18259900000000
C         1.98794200000000   -1.46429800000000    2.02806300000000
C         2.83056200000000    0.75652300000000    2.69016500000000
C         2.54002900000000   -3.03496200000000    0.26179500000000
C         2.33070600000000   -2.66998300000000   -1.22740400000000
C         3.15861100000000   -1.49358900000000   -1.86689600000000
C         3.14753100000000   -1.91788700000000    1.22278500000000
C         2.90508200000000    0.89875400000000   -0.89384900000000
C         2.92005100000000    1.48699000000000    0.29015400000000
C         3.64647300000000    0.67580200000000    1.34339700000000
C         3.69848400000000   -0.37610700000000   -0.92216800000000
C         3.93763200000000   -0.72512200000000    0.59840800000000
O        -5.20334800000000    0.82031600000000   -0.60806800000000
H        -5.40831200000000    1.62336600000000   -1.11689000000000
O        -3.83941500000000   -0.74390200000000   -3.48787600000000
H        -4.61742200000000   -1.08262600000000   -3.00434100000000
O        -3.60947100000000   -3.53195900000000   -0.48319200000000
H        -3.42568000000000   -4.45996400000000   -0.25289700000000
O        -4.70467000000000    0.92438400000000    1.80627600000000
H        -5.47376100000000    0.73074400000000    1.23379200000000
O        -1.69988200000000   -4.25045600000000   -2.12855400000000
H        -2.08219700000000   -4.16918700000000   -3.02245900000000
O        -2.35992800000000   -2.66608900000000   -3.85957200000000
H        -3.11108100000000   -2.13441200000000   -4.20349100000000
O        -4.67752200000000   -1.62345100000000    1.24574300000000
H        -4.73017000000000   -2.24360500000000    1.99780900000000
O        -2.15436300000000    0.70658100000000   -4.40601900000000
H        -2.86899600000000    1.35120200000000   -4.55607100000000
O        -3.07404800000000    2.66321000000000   -3.35718000000000
H        -2.76996600000000    3.59533900000000   -3.34062800000000
O        -4.29474500000000    2.88374400000000   -1.33058900000000
H        -4.00171100000000    3.81509100000000   -1.24479200000000
O        -3.59750400000000   -2.18798100000000    3.35837300000000
H        -3.78697400000000   -1.53063800000000    4.05752100000000
O        -2.49855600000000   -0.34168300000000    4.61104300000000
H        -2.04516300000000   -0.91807800000000    5.25748400000000
O        -0.49049800000000   -1.91539100000000    4.81333800000000
H         0.22092300000000   -1.60236900000000    5.40131400000000
O         0.91280800000000    0.12729100000000    5.16847200000000
H         1.86280200000000    0.22186500000000    5.34077900000000
O         2.87422200000000   -1.18357000000000    4.20903600000000
H         3.57402600000000   -1.71728200000000    3.79734700000000
O         5.29263000000000   -1.03171500000000    0.77547100000000
H         5.73156300000000   -0.85476900000000   -0.07969900000000
O         3.87848900000000    1.94811700000000   -2.72988200000000
H         3.73618500000000    2.79848300000000   -3.18698300000000
O         3.62917700000000    3.74061300000000    0.57502900000000
H         3.82378200000000    3.88397400000000    1.52009300000000
O         3.62486000000000    1.23478400000000    3.73165000000000
H         4.42810700000000    1.60744300000000    3.32047000000000
O         4.88717600000000    1.28735400000000    1.58734600000000
H         5.55612700000000    0.57589600000000    1.48958600000000
O         2.29392800000000    3.84220300000000   -2.85794200000000
H         2.13721400000000    4.69014300000000   -2.39224900000000
O         1.73866900000000    4.82569100000000   -0.69705800000000
H         2.58849700000000    5.01352900000000   -0.25076800000000
O         2.32630200000000    3.90322100000000    2.74111600000000
H         1.86054400000000    4.75758800000000    2.62152800000000
O        -1.02709900000000    2.20296100000000    4.55538100000000
H        -0.56246500000000    1.58257700000000    5.13687400000000
O         4.98881400000000   -0.02920300000000   -1.40136300000000
H         4.89633300000000    0.66159700000000   -2.08087900000000
O        -1.36297300000000    4.18429900000000    3.09448200000000
H        -1.64629200000000    3.84648300000000    3.95885700000000
O         2.14230900000000    1.05561600000000   -4.46358900000000
H         2.50371600000000    0.29395000000000   -4.95748100000000
O         1.12265600000000   -2.97028300000000   -3.86163600000000
H         0.76020000000000   -2.72376500000000   -4.72912700000000
O        -3.40118400000000    3.32535400000000    2.01265100000000
H        -4.11404100000000    2.66867400000000    2.12823100000000
O         2.88738700000000   -1.25643000000000   -4.27215000000000
H         3.76839700000000   -1.60845600000000   -4.01122100000000
O        -2.71141400000000    4.33702600000000   -0.18350000000000
H        -3.14759700000000    4.56022600000000    0.66260800000000
O         3.41222300000000   -4.11950100000000    0.31332400000000
H         3.02850400000000   -4.73990900000000    0.96511000000000
O         1.41424200000000   -4.53174500000000    1.80538500000000
H         0.95774300000000   -5.28663500000000    1.39194400000000
O         4.02013800000000   -2.55811100000000    2.13394800000000
H         4.56354700000000   -3.17902700000000    1.61781500000000
O        -2.09831400000000   -4.79662100000000    0.99435700000000
H        -2.11317200000000   -4.97943100000000    1.94845400000000
O         4.30285500000000   -2.06687100000000   -2.44148400000000
H         4.17849000000000   -3.04138600000000   -2.36886600000000
O        -4.61747700000000   -1.36289500000000   -1.34405200000000
H        -4.99464600000000   -1.61925700000000   -0.48174200000000
O         0.02337500000000   -5.08417900000000   -0.22526800000000
H        -0.63121500000000   -5.26102500000000   -0.92211000000000
O        -0.48003400000000   -1.27893400000000   -4.78444000000000
H        -1.16426200000000   -0.65523000000000   -5.08286100000000
O         0.36660000000000    4.95399100000000    1.58209000000000
H        -0.42588700000000    5.27922700000000    2.03970800000000
O         2.69693000000000   -3.84959400000000   -1.92754200000000
H         2.18500300000000   -3.88471300000000   -2.75843700000000
O         0.30985100000000    2.96597700000000   -4.06113900000000
H         1.02741000000000    2.54728000000000   -4.56758400000000
O        -1.27680200000000    4.18187700000000   -2.59610400000000
H        -0.70894400000000    4.31743600000000   -3.37581300000000
O        -1.72410200000000   -3.78595300000000    3.16725400000000
H        -1.39589400000000   -3.45386700000000    4.01666400000000
