156
 energy: -347.980628330077 gnorm: 0.000481768461 xtb: 6.4.1 (a3dbbd7)
C        -3.73739300000000   -0.32999800000000    0.81435100000000
C        -3.80506700000000    1.02257100000000   -0.02519500000000
C        -3.08268700000000    2.08795300000000    0.90704300000000
C        -2.80464100000000    0.01977200000000    2.02048400000000
C        -1.98650400000000    1.33073800000000    1.69463500000000
C        -2.29286400000000   -1.19934600000000    2.81930300000000
C        -1.88970300000000   -2.47276800000000    2.03548900000000
C        -3.52041800000000   -1.67171000000000    0.00287400000000
C        -2.61955800000000   -2.81207400000000    0.70114000000000
C        -2.95644800000000   -1.61459600000000   -1.46765200000000
C        -3.24546800000000    1.03128800000000   -1.46877200000000
C        -3.14871700000000   -0.30685600000000   -2.26855800000000
C        -1.93888900000000    1.71156200000000   -1.66290100000000
C        -2.12812300000000    3.16058600000000    0.35281500000000
C        -1.77606300000000    3.09619000000000   -1.16282900000000
C        -0.85342500000000    2.63295200000000    1.02730900000000
C        -1.48016100000000    1.81921600000000    3.06623600000000
C        -0.51997300000000    2.89274100000000    2.49505900000000
C        -1.03862300000000   -0.81349800000000    3.73817600000000
C        -0.57614600000000    0.69492600000000    3.69570000000000
C        -0.40718800000000   -2.36124200000000    1.99232700000000
C         0.08804500000000   -1.86812600000000    3.30681900000000
C         0.35835800000000   -2.92701300000000    1.09853500000000
C        -1.61351700000000   -3.31053700000000   -0.42891400000000
C        -1.58253700000000   -2.19881000000000   -1.40750900000000
C        -0.19514600000000   -3.73951000000000   -0.01396900000000
C        -0.89977500000000   -2.46458100000000   -2.68986000000000
C        -1.98090900000000   -0.05828800000000   -3.35510700000000
C        -1.48901500000000    1.43098200000000   -3.05188000000000
C        -0.80689200000000   -1.10662700000000   -3.46588200000000
C         0.00334000000000    1.72916200000000   -3.23430300000000
C        -0.27604700000000    3.59228900000000   -1.29875800000000
C         0.20828400000000    3.46240300000000    0.18878500000000
C         0.59273300000000    2.98130000000000   -2.48039500000000
C         1.73795500000000    3.36964700000000    0.39097200000000
C         0.94121500000000    2.38850800000000    2.77434100000000
C         0.70451700000000    0.91268400000000    2.93593700000000
C         2.12494100000000    2.75650900000000    1.80526900000000
C         1.54563700000000   -1.40632000000000    3.18924300000000
C         1.60717100000000   -0.00835600000000    2.70277300000000
C         1.82746200000000   -3.15674100000000    1.20005500000000
C         2.54980900000000   -2.20186000000000    2.21721700000000
C         0.93542400000000   -3.70459200000000   -1.12347200000000
C         0.60452000000000   -2.99794400000000   -2.52141500000000
C         2.21263700000000   -3.12427200000000   -0.32101800000000
C         0.51535600000000   -0.63010400000000   -2.95775100000000
C         0.88528200000000    0.61569100000000   -2.81975200000000
C         1.48628400000000   -1.75589400000000   -2.94832000000000
C         2.11424800000000    2.55683500000000   -2.13455300000000
C         2.56952500000000    2.57636700000000   -0.65654400000000
C         2.29456900000000    1.10336900000000   -2.75183400000000
C         3.08261500000000    1.53908400000000    1.42636400000000
C         2.99478700000000    0.28581400000000    2.28989700000000
C         3.51958400000000   -1.04164700000000    1.63298800000000
C         2.80449800000000    1.24721600000000   -0.01350700000000
C         2.54519500000000   -1.73138400000000   -0.67495800000000
C         2.73760500000000   -1.43403600000000   -2.12046000000000
C         3.30368400000000    0.05351900000000   -2.15024300000000
C         3.65082200000000   -1.07338500000000    0.07682800000000
C         3.73972400000000    0.30329000000000   -0.66720200000000
O        -4.99748800000000   -0.45411900000000    1.43937200000000
H        -5.51149900000000   -1.08097200000000    0.88874500000000
O        -3.33621800000000   -1.64980100000000    3.65808700000000
H        -3.97297700000000   -0.91109400000000    3.73014200000000
O        -2.37158600000000    2.35787500000000    3.97738400000000
H        -2.07185100000000    3.27014600000000    4.14547300000000
O        -5.14077500000000    1.38862800000000   -0.17709300000000
H        -5.60174400000000    1.14403200000000    0.64413700000000
O        -0.31103400000000    1.10407000000000    5.02312500000000
H        -0.73902000000000    0.44760400000000    5.60507100000000
O        -1.38427000000000   -1.08612200000000    5.06394300000000
H        -2.28985200000000   -1.46242500000000    5.04047300000000
O        -4.10126600000000    2.69404400000000    1.65874100000000
H        -3.83971100000000    3.62539700000000    1.78685700000000
O        -2.07489000000000   -3.57887200000000    2.90797300000000
H        -3.02715600000000   -3.69455100000000    3.04529900000000
O        -3.48885200000000   -3.87552800000000    0.98493300000000
H        -3.33019600000000   -4.52909600000000    0.26355600000000
O        -4.81900500000000   -2.19754800000000   -0.14775100000000
H        -4.80419400000000   -3.08416700000000    0.27588200000000
O        -2.58296500000000    4.43207200000000    0.71079700000000
H        -2.87253400000000    4.86937300000000   -0.10840200000000
O        -2.62833200000000    4.00498100000000   -1.83332000000000
H        -2.05116600000000    4.75569800000000   -2.09580600000000
O        -0.37248100000000    4.97226800000000   -1.56052800000000
H         0.07307200000000    5.11442700000000   -2.42654200000000
O         0.66170600000000    3.99763600000000   -3.45382100000000
H         1.61086600000000    4.09566000000000   -3.68116800000000
O         2.91739300000000    3.42953500000000   -2.88113000000000
H         3.65470300000000    3.70910300000000   -2.31071500000000
O         5.08419200000000    0.74193700000000   -0.69618600000000
H         5.28973100000000    1.12357400000000    0.17436700000000
O         3.31022200000000   -3.95640700000000   -0.55691900000000
H         2.94419600000000   -4.84639000000000   -0.72568000000000
O         1.96618700000000   -1.93726100000000   -4.25931300000000
H         1.19924900000000   -1.93921500000000   -4.85725900000000
O         2.66502400000000    1.30152900000000   -4.10338200000000
H         3.56526700000000    0.93302700000000   -4.20006300000000
O         4.43814200000000    0.06302800000000   -2.97151000000000
H         5.18785800000000    0.34577700000000   -2.41830500000000
O         1.23595800000000   -5.04243700000000   -1.39380900000000
H         1.30260900000000   -5.11357000000000   -2.37158700000000
O         0.80888900000000   -3.97350100000000   -3.50846600000000
H        -0.06842900000000   -4.15579000000000   -3.90242200000000
O         4.83917400000000   -1.80895500000000   -0.16632400000000
H         4.77301000000000   -2.24024200000000   -1.03844900000000
O         4.79686000000000   -1.24108600000000    2.17576700000000
H         5.33538600000000   -1.65514500000000    1.47374900000000
O        -2.60254800000000   -0.06020100000000   -4.60610800000000
H        -2.92099400000000    0.85349200000000   -4.74896000000000
O        -2.18319200000000    2.29730500000000   -3.93698900000000
H        -1.53765900000000    2.58171900000000   -4.60933100000000
O         1.99010400000000   -4.49592000000000    1.62741400000000
H         2.64104300000000   -4.47869700000000    2.35243200000000
O         3.33809400000000   -3.02762400000000    3.02376000000000
H         4.19776200000000   -2.56854100000000    3.13436900000000
O        -0.78105000000000    4.11965800000000    3.09367400000000
H        -0.77855600000000    4.79068800000000    2.39052900000000
O         2.21842300000000    4.69660000000000    0.30929100000000
H         2.72804300000000    4.85035600000000    1.13118600000000
O         2.91978900000000    3.72591900000000    2.43598700000000
H         2.65742200000000    3.73153600000000    3.37595100000000
O        -4.35675800000000   -0.48400800000000   -2.95717200000000
H        -4.79089700000000    0.38549900000000   -3.00989600000000
O        -3.67157700000000   -2.62505700000000   -2.18069400000000
H        -4.41917800000000   -2.17336000000000   -2.61898300000000
O         4.43183500000000    2.00598400000000    1.55643400000000
H         4.68130000000000    1.84090800000000    2.48365400000000
O         2.13099600000000   -1.40195300000000    4.47315800000000
H         1.74633900000000   -2.15658200000000    4.94836400000000
O        -1.56366400000000   -3.42655200000000   -3.47867100000000
H        -2.49222500000000   -3.46222100000000   -3.17095300000000
O        -3.65095800000000    0.57079000000000    3.01257600000000
H        -4.08131300000000    1.39965600000000    2.72028600000000
O        -0.59698500000000   -1.41559300000000   -4.82881600000000
H        -1.39957900000000   -1.13339400000000   -5.30411300000000
O         0.12040600000000   -2.91999800000000    4.23915400000000
H        -0.69121500000000   -3.44318900000000    4.12190100000000
O         0.15397500000000    1.91459400000000   -4.62712400000000
H         1.09833000000000    1.81122300000000   -4.84257700000000
O        -0.34494800000000   -5.06470800000000    0.44856900000000
H         0.47992200000000   -5.31372300000000    0.90058100000000
O         1.33592100000000    2.89838800000000    4.03404300000000
H         0.78359100000000    2.46831900000000    4.71245100000000
O         3.74332400000000    0.56608600000000    3.45538000000000
H         3.48638900000000   -0.07836200000000    4.13575100000000
O        -0.12247100000000    4.72643100000000    0.74677100000000
H         0.60556100000000    5.32939500000000    0.49281600000000
O        -4.14777500000000    1.80395800000000   -2.26577500000000
H        -4.02723700000000    2.74807700000000   -2.08254400000000
O         3.85436100000000    3.20821800000000   -0.71078300000000
H         4.26239800000000    3.17156200000000    0.17133200000000
O         3.77237500000000   -2.28259300000000   -2.57951100000000
H         3.63473800000000   -2.39454200000000   -3.53586500000000
O        -2.20118800000000   -4.46106000000000   -1.02923300000000
H        -1.63176800000000   -5.21630800000000   -0.78568700000000
