128
 energy: -284.286316067382 gnorm: 0.000170289228 xtb: 6.4.1 (a3dbbd7)
C         2.74086000000000    0.21792900000000   -2.35112700000000
C         3.06988300000000   -1.12693100000000   -1.58862500000000
C         3.57982100000000   -0.64973200000000   -0.18475200000000
C         2.46028800000000    1.16626800000000   -1.21734400000000
C         2.94544100000000    0.70597900000000   -0.07355200000000
C         2.14449500000000    2.59629000000000   -1.49123700000000
C         0.94045400000000    2.73452700000000   -2.47756800000000
C         1.64910400000000    0.17957700000000   -3.45399100000000
C         0.65774500000000    1.45288000000000   -3.38455300000000
C         0.66116100000000   -1.09914500000000   -3.46109600000000
C         1.87160200000000   -1.98987200000000   -1.42912700000000
C         1.05997600000000   -2.35593100000000   -2.63153200000000
C         1.57905300000000   -2.71071200000000   -0.36085200000000
C         3.24760600000000   -1.49321600000000    1.09972300000000
C         2.33158000000000   -2.76773700000000    0.92533800000000
C         2.46158400000000   -0.64666100000000    2.09044500000000
C         3.12379800000000    1.55158700000000    1.13719400000000
C         2.83840900000000    0.75607300000000    2.46272800000000
C         1.71478700000000    3.34759600000000   -0.18402900000000
C         2.01648700000000    2.55827200000000    1.05854100000000
C        -0.21262000000000    3.06620800000000   -1.51891100000000
C         0.21156900000000    3.39129200000000   -0.31155300000000
C        -1.65774900000000    2.92791300000000   -1.91518500000000
C        -0.60511000000000    0.83936400000000   -2.87175100000000
C        -0.58420300000000   -0.53564200000000   -2.89721400000000
C        -1.65841800000000    1.48119700000000   -2.27800000000000
C        -1.57500000000000   -1.24997200000000   -2.29414600000000
C        -0.12334800000000   -3.29863700000000   -2.03524200000000
C         0.37692600000000   -3.60239800000000   -0.57795800000000
C        -1.59886600000000   -2.72427400000000   -2.11030000000000
C        -0.55124400000000   -3.19264400000000    0.50073200000000
C         1.39198800000000   -2.76294600000000    2.18514000000000
C         1.47378400000000   -1.32954900000000    2.64219200000000
C        -0.07014100000000   -3.26288900000000    1.94345100000000
C         0.58001700000000   -0.86560600000000    3.73752200000000
C         1.68265700000000    1.56169100000000    3.18731300000000
C         1.18773600000000    2.50370000000000    2.08991900000000
C         0.52808700000000    0.71438300000000    3.86896100000000
C        -0.64409900000000    3.85919300000000    0.81704200000000
C        -0.10969200000000    3.26531200000000    2.19258300000000
C        -2.72913300000000    3.02820100000000   -0.74206100000000
C        -2.14323200000000    3.36158200000000    0.69256400000000
C        -2.65772900000000    0.76788500000000   -1.65256200000000
C        -2.61564600000000   -0.59763900000000   -1.65915900000000
C        -3.58165600000000    1.62154600000000   -0.85942900000000
C        -2.59229500000000   -2.83485600000000   -0.85936500000000
C        -1.82225100000000   -2.83359700000000    0.40190400000000
C        -3.51575800000000   -1.53176600000000   -0.93629700000000
C        -1.10846500000000   -2.34318400000000    2.54019400000000
C        -0.81144100000000   -1.26454100000000    3.25948500000000
C        -2.42053400000000   -2.53216400000000    1.75607000000000
C        -0.78586100000000    1.04199900000000    3.20338300000000
C        -1.08813000000000    2.16257500000000    2.47140900000000
C        -2.15011400000000    2.15718100000000    1.57946900000000
C        -1.59226300000000   -0.08079900000000    3.05969700000000
C        -3.98644900000000    0.81561700000000    0.42846100000000
C        -4.07095400000000   -0.85136400000000    0.38323400000000
C        -3.40474700000000   -1.29921400000000    1.76055000000000
C        -2.95542300000000    1.05091300000000    1.46818400000000
C        -2.66851200000000   -0.07590700000000    2.20308800000000
O         3.95212400000000    0.69861500000000   -2.92028200000000
H         3.89030700000000    0.51422100000000   -3.87744400000000
O         1.14431400000000    3.83733400000000   -3.31489300000000
H         2.07500900000000    4.10639900000000   -3.22880800000000
O         4.04527600000000   -1.85813700000000   -2.27814000000000
H         4.87212800000000   -1.35305100000000   -2.20163500000000
O         0.51981600000000    1.87108200000000   -4.71711000000000
H         0.08042100000000    2.73421200000000   -4.71024600000000
O         2.33707300000000    0.18598900000000   -4.67109500000000
H         1.68610000000000    0.41579900000000   -5.35381800000000
O         4.97533800000000   -0.44747300000000   -0.25749700000000
H         5.35523700000000   -1.00126500000000    0.46004100000000
O         3.29355800000000    3.21965800000000   -2.02614600000000
H         3.81916100000000    2.52962200000000   -2.47577500000000
O         4.42626500000000    2.09361900000000    1.16182600000000
H         4.98032500000000    1.56783400000000    0.56183900000000
O         4.46217300000000   -1.90284100000000    1.67159200000000
H         4.50037100000000   -2.87452700000000    1.54347900000000
O         3.13912500000000   -3.91711200000000    0.93003800000000
H         2.95836300000000   -4.38323700000000    1.76682900000000
O         2.01861500000000   -3.58158500000000    3.14573700000000
H         1.66160500000000   -3.35000300000000    4.01518400000000
O         3.97333900000000    0.76069500000000    3.28337000000000
H         4.65169500000000    1.28628000000000    2.81078000000000
O         0.97190800000000   -1.48034100000000    4.93265400000000
H         0.74599400000000   -0.85364400000000    5.64360500000000
O        -0.14063900000000   -4.60896400000000    2.36896600000000
H        -1.08072600000000   -4.83401700000000    2.43965500000000
O         0.48420100000000    0.99779100000000    5.24379900000000
H         1.14770600000000    1.69609900000000    5.40844900000000
O         2.27133400000000    2.35605500000000    4.19483700000000
H         3.16249700000000    1.97407500000000    4.34468800000000
O        -1.98774300000000    3.75275700000000   -2.99429500000000
H        -2.52452600000000    4.48472900000000   -2.65454000000000
O        -0.66674300000000    5.26157100000000    0.84473800000000
H         0.24370500000000    5.57462000000000    0.92773900000000
O         2.23548100000000    4.64915200000000   -0.12538400000000
H         3.11762000000000    4.62982500000000   -0.52464800000000
O        -0.05385800000000    4.30727200000000    3.12747200000000
H         0.42259700000000    3.99623200000000    3.90676400000000
O        -3.59707700000000    4.06683400000000   -1.09068800000000
H        -3.82591900000000    4.51054700000000   -0.24283300000000
O        -2.97698600000000    4.35387000000000    1.25753000000000
H        -2.40795400000000    5.11227900000000    1.47613400000000
O         1.84233900000000   -3.18843600000000   -3.46645100000000
H         2.77666100000000   -2.96446100000000   -3.32845400000000
O         0.46324000000000   -1.48635200000000   -4.79031200000000
H         0.99515600000000   -2.29092500000000   -4.93066700000000
O        -0.15698400000000   -4.47770100000000   -2.77823000000000
H         0.54703800000000   -5.05948200000000   -2.45851300000000
O         0.70362100000000   -4.96893100000000   -0.48554300000000
H         0.70500100000000   -5.22214200000000    0.44998800000000
O        -4.62495500000000   -1.85761700000000   -1.73879900000000
H        -4.71475800000000   -2.82985800000000   -1.69156300000000
O        -3.38344600000000   -3.97732900000000   -0.98165100000000
H        -3.22938900000000   -4.30436800000000   -1.89230900000000
O        -2.28363800000000   -3.35909600000000   -3.16413700000000
H        -1.63789000000000   -3.85917100000000   -3.68614200000000
O        -3.07978500000000   -3.68207300000000    2.21878800000000
H        -3.87981600000000   -3.36221700000000    2.67934600000000
O        -4.41529000000000   -1.62170400000000    2.68747000000000
H        -5.26079600000000   -1.35511400000000    2.28852800000000
O        -5.42340100000000   -1.17085900000000    0.48276400000000
H        -5.73872800000000   -1.31225400000000   -0.43128700000000
O        -5.22140200000000    1.27234000000000    0.87958200000000
H        -5.75459500000000    1.45269100000000    0.08568100000000
O        -4.77246100000000    1.89397200000000   -1.54942900000000
H        -4.75236300000000    2.83660800000000   -1.79669300000000
