140
 energy: -311.638002999733 gnorm: 0.000681473896 xtb: 6.4.1 (a3dbbd7)
C         3.71255200000000   -0.15330000000000    0.85064900000000
C         3.30968200000000    1.33231600000000    1.28690400000000
C         3.11221700000000    2.09765300000000   -0.06072700000000
C         3.43865000000000   -0.19249600000000   -0.67602900000000
C         2.54223800000000    1.02924600000000   -1.01151400000000
C         3.22669000000000   -1.58762000000000   -1.31232500000000
C         2.55615900000000   -2.73504400000000   -0.46590500000000
C         3.05474400000000   -1.26036300000000    1.74607200000000
C         2.65978000000000   -2.65658500000000    1.09513000000000
C         1.80546900000000   -0.84872600000000    2.47331100000000
C         2.06981500000000    1.42986500000000    2.11369700000000
C         1.78715100000000    0.43023400000000    3.21006600000000
C         1.13406500000000    2.35591700000000    2.02859400000000
C         2.02210400000000    3.18792400000000   -0.17032900000000
C         1.10651400000000    3.50117800000000    1.06942500000000
C         1.07007700000000    2.51326600000000   -1.13944200000000
C         2.48167700000000    1.21362400000000   -2.52073000000000
C         1.31896200000000    2.21435600000000   -2.60358700000000
C         2.32572300000000   -1.48341600000000   -2.62228600000000
C         1.97219100000000   -0.08476000000000   -3.24445500000000
C         1.17838500000000   -2.82839300000000   -1.05116000000000
C         1.06408600000000   -2.18121300000000   -2.19697900000000
C         0.19794300000000   -3.78971900000000   -0.46799000000000
C         1.29686000000000   -3.04568600000000    1.81724600000000
C         0.90591000000000   -1.80043800000000    2.55940100000000
C         0.10725700000000   -3.32671600000000    0.95176800000000
C        -0.31193100000000   -1.78904100000000    3.40946100000000
C         0.39588500000000    0.82513900000000    3.83709100000000
C         0.02844500000000    2.15012100000000    3.04522900000000
C        -0.73762100000000   -0.33430900000000    3.91014200000000
C        -1.17070300000000    2.04741200000000    2.19305100000000
C        -0.35025400000000    3.80036500000000    0.46484200000000
C        -0.19829900000000    3.37059400000000   -1.03068300000000
C        -1.53361100000000    3.18767100000000    1.29404000000000
C        -1.47789400000000    2.86905300000000   -1.72377300000000
C         0.12410100000000    1.37645700000000   -2.99349600000000
C         0.45368500000000    0.12452400000000   -3.27133000000000
C        -1.24537200000000    1.96734500000000   -2.99303200000000
C        -0.19715700000000   -2.27580800000000   -2.99232200000000
C        -0.52702700000000   -0.92686100000000   -3.70583300000000
C        -1.26160800000000   -3.59353800000000   -1.02305400000000
C        -1.28021200000000   -2.43845700000000   -1.96105000000000
C        -1.12684400000000   -3.01083600000000    1.31377900000000
C        -1.52662300000000   -2.39045100000000    2.61451900000000
C        -2.15934600000000   -3.34465100000000    0.25159100000000
C        -2.10864000000000   -0.03679800000000    3.16844500000000
C        -2.11226300000000    1.13427600000000    2.26567800000000
C        -2.34185000000000   -1.19586100000000    2.23399400000000
C        -2.73921300000000    2.56847900000000    0.48229300000000
C        -2.28908100000000    2.01424200000000   -0.81591100000000
C        -3.30211600000000    1.42712200000000    1.38885200000000
C        -2.36070700000000    0.86509300000000   -2.86624100000000
C        -2.00209000000000   -0.60562400000000   -3.24785900000000
C        -2.20033700000000   -1.49845100000000   -2.03913200000000
C        -2.75499000000000    0.93073900000000   -1.40953300000000
C        -3.28546800000000   -2.23185900000000    0.13677300000000
C        -3.05762200000000   -1.10755100000000    1.12661800000000
C        -3.85547000000000    0.10585200000000    0.70472600000000
C        -3.44388400000000   -1.47031400000000   -1.22061300000000
C        -3.79750100000000    0.02958800000000   -0.84944600000000
O         5.10206300000000   -0.28517000000000    0.98174200000000
H         5.34856600000000    0.11039900000000    1.83422000000000
O         4.47479100000000   -2.12384400000000   -1.66927000000000
H         5.11052600000000   -1.38517800000000   -1.69311500000000
O         3.62176900000000    1.73659400000000   -3.13535300000000
H         3.70459100000000    1.25692100000000   -3.98250100000000
O         4.35816400000000    1.88336600000000    2.03647000000000
H         4.90141000000000    2.41296900000000    1.42824300000000
O         2.48786900000000   -0.00975800000000   -4.54674200000000
H         2.67744700000000   -0.92607100000000   -4.82451400000000
O         2.92991100000000   -2.25184800000000   -3.63414400000000
H         3.74109400000000   -2.63327600000000   -3.24325400000000
O         4.37031100000000    2.63824300000000   -0.40208600000000
H         4.18411700000000    3.48113500000000   -0.86234000000000
O         3.12720100000000   -3.96610000000000   -0.86646200000000
H         4.05727800000000   -3.97433400000000   -0.59353700000000
O         3.65098500000000   -3.57451600000000    1.47736000000000
H         3.21580400000000   -4.20442700000000    2.08743000000000
O         3.98897200000000   -1.51277000000000    2.78400400000000
H         4.46545100000000   -2.32797900000000    2.53439700000000
O         2.59478600000000    4.38335600000000   -0.63039800000000
H         2.55741100000000    5.00046600000000    0.12878000000000
O         1.60556100000000    4.65833100000000    1.68668100000000
H         0.85424700000000    5.26869400000000    1.80352300000000
O        -2.23540700000000    3.99075800000000   -2.13443300000000
H        -2.93097200000000    4.15201900000000   -1.47773600000000
O        -1.44384800000000    2.70070100000000   -4.16818000000000
H        -1.79706900000000    3.56860700000000   -3.90034000000000
O        -0.56016000000000    5.18975600000000    0.53010500000000
H        -0.27095700000000    5.55426300000000   -0.32778100000000
O         1.56018800000000    3.28696100000000   -3.46913600000000
H         2.51983300000000    3.27312100000000   -3.64644000000000
O        -3.48674100000000    1.27672600000000   -3.60416600000000
H        -3.14441600000000    1.74815600000000   -4.38510500000000
O        -0.49776200000000   -1.07200100000000   -5.09826000000000
H        -0.26161100000000   -2.00029700000000   -5.27585400000000
O        -2.89245300000000   -1.05555100000000   -4.23912800000000
H        -2.39943500000000   -1.02508300000000   -5.08034700000000
O        -2.03414600000000    4.18062900000000    2.16381100000000
H        -2.28169900000000    4.95263100000000    1.63189000000000
O        -3.70615300000000    3.55574600000000    0.22069800000000
H        -4.34259100000000    3.50280700000000    0.95524900000000
O        -4.32607900000000    2.01082700000000    2.15030900000000
H        -4.57393400000000    1.37224300000000    2.83592200000000
O        -0.17703200000000   -3.31848800000000   -3.93494500000000
H        -0.48759800000000   -4.12387300000000   -3.49400600000000
O         0.59217200000000   -5.12060700000000   -0.63886300000000
H         1.56183700000000   -5.14287100000000   -0.67794700000000
O        -5.17624700000000   -0.08923600000000    1.12689600000000
H        -5.75893300000000    0.24053800000000    0.42509500000000
O        -1.68092700000000   -4.70619600000000   -1.75543900000000
H        -1.75761800000000   -5.44349200000000   -1.13045900000000
O        -4.49348100000000   -2.06071600000000   -1.94888400000000
H        -4.37226300000000   -1.83885700000000   -2.88438900000000
O        -5.05014700000000    0.40050600000000   -1.36821900000000
H        -4.92424000000000    0.67289800000000   -2.29093200000000
O        -2.75409700000000   -4.56681300000000    0.60587000000000
H        -3.72169300000000   -4.41748700000000    0.57921200000000
O        -0.07470500000000    3.22039200000000    3.94094500000000
H        -0.83629400000000    3.76396700000000    3.68576300000000
O         0.01826400000000   -2.61922800000000    4.49327700000000
H        -0.77365900000000   -2.70932100000000    5.04436700000000
O        -1.07536500000000   -0.51203100000000    5.25897400000000
H        -0.53094200000000    0.12990700000000    5.76274700000000
O         0.60972300000000    1.19661700000000    5.16906800000000
H         1.56894000000000    1.27309900000000    5.30346400000000
O         1.55631100000000   -4.11920500000000    2.69623300000000
H         1.06021900000000   -3.95052800000000    3.51671600000000
O        -2.20760000000000   -3.27910100000000    3.46633300000000
H        -2.84682500000000   -3.77216800000000    2.93662800000000
O         4.62700700000000    0.21365300000000   -1.33952500000000
H         4.90861600000000    1.09761200000000   -1.03719400000000
O        -4.51340400000000   -2.85626500000000    0.43735300000000
H        -5.10233500000000   -2.72340400000000   -0.32361000000000
O        -3.16437000000000    0.11324600000000    4.08121100000000
H        -2.82569100000000   -0.20116900000000    4.94103900000000
O         2.75582100000000    0.45090300000000    4.22938300000000
H         3.47640300000000   -0.14908100000000    3.97982000000000
O         0.17212100000000    4.57462200000000   -1.68677500000000
H         0.57637800000000    4.36794100000000   -2.55335800000000
