64
 energy: -146.683373956677 gnorm: 0.000101860799 xtb: 6.4.1 (a3dbbd7)
C         0.19428459610953   -0.05258478966364   -3.51047799785704
C         0.26785900601733    1.36272957480659   -3.25045955337012
C        -1.04518815543018    1.81096672989896   -2.86182550686754
C        -1.15502613909457   -0.47440759137659   -3.28570310999701
C        -1.92349940237382    0.66870916129522   -2.88508124394967
C        -1.39743863461960   -1.71352670378179   -2.68902512432992
C        -0.29697931408915   -2.57115233367945   -2.34587008032411
C         1.24966792308823   -0.89059023108071   -3.14476861525339
C         1.00385395352806   -2.17436784758517   -2.59363730786240
C         2.42038391024052   -0.33467595905992   -2.50747463585576
C         1.39318208245556    1.89614721674106   -2.63860205038890
C         2.48679578101774    1.03280913487717   -2.26532568725258
C         1.24957527681805    2.89727145526563   -1.61303615943739
C        -1.18556439337166    2.77203068868081   -1.86879744352393
C        -0.01866745232312    3.32725901837116   -1.23395012998162
C        -2.21169520921833    2.62961946488858   -0.86574633454721
C        -2.90079597387929    0.52381394570500   -1.90893501479238
C        -3.05388405335449    1.52515335862231   -0.88589483599433
C        -2.43263255482233   -1.86360744980623   -1.71994959187651
C        -3.15487490476142   -0.76444146075804   -1.32088322891828
C        -0.64598757313333   -3.26291056643016   -1.12920525730110
C        -2.10200109678302   -3.01027458786055   -0.79047427776924
C         0.30467124743048   -3.45638035509119   -0.17752781178678
C         2.16765690030542   -2.58576337045465   -1.71190267977954
C         2.91161942435502   -1.27470742566100   -1.55195385759633
C         1.66729670335360   -3.02468352476075   -0.38360865859645
C         3.40911140804856   -0.83390451430684   -0.35528029735309
C         3.01296166792487    1.49590572606943   -1.01850640856388
C         2.25362563463779    2.65232551299119   -0.61160203491255
C         3.43781404839241    0.56549095006946   -0.07574639387996
C         1.95704958652488    2.84699329988031    0.72985360033049
C        -0.32348850685290    3.53327513754255    0.15857849565750
C        -1.68157782539691    3.10533627708377    0.38671892749430
C         0.64861809452217    3.29873883348303    1.12303998650021
C        -2.02000086471830    2.46289533514015    1.57069954000236
C        -3.40888287500878    0.85963490674731    0.34125064221497
C        -3.48567891114920   -0.55266945335928    0.08107376628496
C        -2.90713938989098    1.32692199073457    1.55162618311492
C        -2.27452873931105   -2.62170789702624    0.64111996236790
C        -3.03026929429662   -1.45629306304000    1.02318027808387
C         0.00384829617244   -3.26413235211216    1.23793253421722
C        -1.30215545920580   -2.84944745355505    1.59957520838664
C         2.14273836261100   -2.55854104196606    0.81682523667363
C         3.27645132979309   -1.60389707459528    0.94587420597755
C         1.12904850587371   -2.71336059886675    1.82533511991003
C         3.12431156212666    0.76525037111391    1.31563181120905
C         2.40764336166223    1.88962819089941    1.70943984021213
C         2.88825967397392   -0.50745517025716    1.91774060485482
C         0.29611408781808    2.62552069689269    2.34993714080705
C        -1.01064701693083    2.21920989625610    2.57024189030799
C         1.38837092716441    1.75498318368055    2.70368844454742
C        -2.44726825753753    0.38622390888565    2.53938574832838
C        -2.50850465033815   -0.97716764331258    2.28006072476945
C        -1.41930424279410   -1.83446669905908    2.64678079849352
C        -1.27468675928618    0.93046930735453    3.16226254042986
C         1.08746638217155   -1.89011517198156    3.06278305745395
C         1.91078938661033   -0.63607308094278    2.86652137807581
C         1.13880388441905    0.50225932458170    3.25377274925766
C        -0.30460628572834   -1.31925115992427    3.26124018630788
C        -0.21878378277919    0.08522923810199    3.49580045410564
Cl        4.80633553760513   -2.43590623898473    1.41952554678941
Cl        1.62461420837710   -2.83413329181698    4.51516429236479
Cl        3.18465965787864   -3.84976338678969   -2.51826832945111
Cl       -3.07728889399227   -4.49039854216613   -1.20178665294667
