64
 energy: -146.697340730541 gnorm: 0.000064883233 xtb: 6.4.1 (a3dbbd7)
C         0.20073544032501   -0.04612051055525   -3.51389884787168
C         0.27207531043472    1.37032617185990   -3.25097076359390
C        -1.04290677654122    1.81466138538909   -2.86242781528086
C        -1.15371005607171   -0.46915296416715   -3.29955394786630
C        -1.92494025077529    0.67318981912898   -2.89422255493679
C        -1.39058286739980   -1.70433504988960   -2.70865164881058
C        -0.29638349852444   -2.54922651436170   -2.32064552965980
C         1.24908547341537   -0.88211514892145   -3.13669509222302
C         0.99720179937036   -2.16648785179386   -2.56620535444405
C         2.41614389827796   -0.33023069383924   -2.49899803475216
C         1.39499509573129    1.90183811339644   -2.63572107867830
C         2.48657072762222    1.03875918537952   -2.26017715085209
C         1.24985906949062    2.90394450832538   -1.60799797849915
C        -1.18381975533363    2.77217235050070   -1.86724179938054
C        -0.01675458400678    3.33066607608401   -1.23016531065131
C        -2.20825803569679    2.62524166363713   -0.86390799682394
C        -2.91041268198154    0.52846009846775   -1.92083717228315
C        -3.05097210959382    1.52255603799726   -0.88836413694944
C        -2.41001874604567   -1.84626848711396   -1.70923557888745
C        -3.16600165829533   -0.75826818851399   -1.33374595139877
C        -0.68543820435331   -3.21993919939001   -1.09178882197885
C        -1.93081478752715   -2.80031889452084   -0.72501868259611
C         0.33485444644933   -3.73714773543904   -0.14751897562070
C         2.16093678893277   -2.58532471247675   -1.69120464712272
C         2.90221237221193   -1.27001739704775   -1.53799741929738
C         1.66819241660567   -3.03920685389227   -0.36067935790780
C         3.40855268407782   -0.82007693791326   -0.35079532798675
C         3.01496592069037    1.50563686905441   -1.01496043107484
C         2.25472283639148    2.66070126529309   -0.60614806427505
C         3.44674304606969    0.58007430390056   -0.07262326446734
C         1.96117389804343    2.85632837686779    0.73603442416347
C        -0.32238831548828    3.53214500974119    0.16318951780681
C        -1.67610511132782    3.09865358751267    0.39009978656476
C         0.65108818007924    3.30381934705652    1.12977031555295
C        -2.01100704914788    2.45484840277266    1.57415292019511
C        -3.39580537821853    0.85005541800525    0.33924165960155
C        -3.46939395059269   -0.55995656290978    0.08057259522302
C        -2.89014935531125    1.31228233774428    1.54941540914703
C        -2.44743188036895   -2.81389064252953    0.67462525246039
C        -3.05373436382259   -1.46691708818690    1.02694390345041
C        -0.02410785516429   -3.29325507314400    1.25432808589726
C        -1.27412303288664   -2.87831122322412    1.63162349737552
C         2.13803250019197   -2.55736409415481    0.80906135648718
C         3.26583090769693   -1.58717488453298    0.94443830048572
C         1.12605145399502   -2.69887778493252    1.84317064882419
C         3.14431010283481    0.78448178946028    1.32282403749374
C         2.41991827715470    1.90683762078208    1.72006411277150
C         2.90978516517081   -0.48503061111525    1.92192410701877
C         0.30366237162119    2.63436066733346    2.35821827734723
C        -1.00301625939926    2.21618382829757    2.57451506088357
C         1.40184002885479    1.77451005336242    2.71976048804412
C        -2.43038851290949    0.37040950542174    2.52512258054994
C        -2.49868099885072   -0.99510751964318    2.25202451645270
C        -1.40547503103709   -1.85840887847366    2.61883138088415
C        -1.26059690198527    0.92473732541054    3.16171202038722
C         1.01742738013968   -1.76287091806667    2.85114762068887
C         1.91799375755665   -0.61591114918997    2.86511439349549
C         1.15211265139985    0.52488997886588    3.27864007455650
C        -0.27884732454973   -1.31819379448643    3.24128984744695
C        -0.20523285738633    0.09693514887494    3.50929558347424
Cl        4.78442924994487   -2.44622015286228    1.41768528861793
Cl        0.52115037793846   -5.52997610588237   -0.28052120551189
Cl        3.17043903762373   -3.85080954459786   -2.50257751194189
Cl       -3.62650053013471   -4.16106501814494    0.93638367093365
